# total energy = -234.12099916 eV
 
CRYSTAL
PRIMVEC
0.049632 6.192590 6.362240 
6.217347 0.073860 6.338387 
4.192935 4.160624 0.000972 
PRIMCOORD
36 1
Li	     10.30199      4.18713      6.37541        -0.009563      0.031196     -0.013986
Li	      8.48129      8.46452     12.65350         0.045325      0.012754     -0.034675
Li	      4.13086      2.12143      2.09433         0.001219      0.011702     -0.009612
Li	      8.34218      4.21657      4.25074         0.007692      0.016088     -0.039544
Li	      8.34772      4.22119      8.40894         0.024545      0.013409     -0.000270
Li	      2.12653      2.10847      4.17664         0.006862      0.029100     -0.035254
Li	     10.42106      8.35898     10.56456         0.017920     -0.031519     -0.003076
Li	      4.16638      6.24961      6.30947        -0.023480     -0.002219      0.031073
Li	      6.26155      6.18372      8.52278        -0.033925     -0.036099      0.043727
Ti	      2.07404      0.18911      2.03018        -0.057304      0.233664     -0.075191
Ti	      6.22416      8.22504     10.61892        -0.302716     -0.230911     -0.037072
Ti	      6.13639      8.24765      6.30285        -0.224997      0.025655     -0.079079
Cr	      6.28683      4.23815      6.34965        -0.040562     -0.040597     -0.024272
Cr	      8.39858      8.31414      8.52236         0.019632      0.036690     -0.048623
Co	      4.23395      6.21495      2.14421         0.014846      0.029922      0.147761
Co	      2.14416      6.21228      4.29991         0.009770      0.026051     -0.003367
Cu	      4.15161      4.19930      4.16766         0.002350     -0.010347      0.016852
Cu	      8.35698      6.22352      6.37798         0.024075      0.026898     -0.000567
O	      2.05742      2.03834      2.09421         0.176632     -0.251021     -0.055573
O	      4.33082      4.24126      2.01501         0.100624     -0.150131     -0.153111
O	      4.30049      2.19231      4.09067         0.228204     -0.095602     -0.123767
O	      6.25623      4.15373      4.19778         0.083436     -0.009265     -0.030730
O	      6.23887      2.23236      6.18899         0.047379     -0.035762     -0.171795
O	      8.24209      4.29816      6.33302         0.000661     -0.097711     -0.067254
O	      2.12336      4.23254      4.38076        -0.068453     -0.016442      0.232282
O	      4.04285      6.13424      4.30649         0.052525      0.079422     -0.001727
O	      4.20032      4.05724      6.52009         0.018051     -0.000949      0.265094
O	      6.31821      6.29519      6.34871        -0.077070      0.092355      0.085894
O	      6.19927      4.12964      8.36483         0.025758      0.174256     -0.053059
O	      8.44973      6.30453      8.72243        -0.144768     -0.012773      0.170223
O	      2.15118      6.09299      6.39702        -0.052794     -0.039244      0.130326
O	      4.34289      8.27651      6.36273         0.269582     -0.009021      0.014209
O	      4.06313      6.15665      8.49502        -0.133049     -0.028309      0.001167
O	      6.35846      8.36301      8.46602         0.010949      0.016250      0.030927
O	      6.35966      6.35640     10.60313         0.001010      0.261970     -0.091389
O	      8.30727      8.23929     10.55037        -0.020366     -0.019460     -0.016543
