# total energy = -233.11517790 eV
 
CRYSTAL
PRIMVEC
-0.013012 6.283715 6.362391 
6.264801 0.017004 6.332681 
4.186079 4.178638 0.001823 
PRIMCOORD
36 1
Li	      2.07760      6.27572      8.33591         0.044590     -0.027751     -0.030746
Li	      2.05776      4.21059      2.23934        -0.138768     -0.009743      0.061806
Li	      6.21086      6.43571      4.34371        -0.088706      0.017346      0.062936
Li	      8.26946      6.37898      6.42537        -0.009003     -0.006576      0.020451
Li	      2.12865      6.10819      4.34639        -0.013322      0.012250      0.013913
Li	      2.21963      4.21861      6.23401        -0.058098      0.035625      0.016582
Li	      4.10503      6.16974      6.33721         0.022253      0.060302     -0.012962
Li	      4.17125      4.18321      8.26869         0.045954     -0.021862     -0.009999
Li	      6.34295      6.26919      8.38638         0.046548     -0.065060      0.024475
Ti	      4.07772      8.33865      8.40209        -0.021564     -0.281147     -0.346403
Ti	      6.30118      8.36989     10.46467        -0.044007     -0.130485     -0.262554
Ti	     10.26635      6.28184      8.52032        -0.590664      0.592486      0.264348
Cr	      2.07890      8.32795      6.37019         0.052149      0.053964     -0.033055
Cr	      8.33568      4.21979      4.23839         0.089249     -0.014818     -0.032700
Co	      6.19254      4.41061      6.38010        -0.026404      0.064234      0.244795
Co	      0.07641      4.18732      4.22775         0.584964      0.016067     -0.225041
Ni	      0.03802      0.00788      0.04164        -0.049138     -0.087288     -0.102675
Ni	      4.08254      4.20493      4.30849         0.370280      0.120867     -0.063812
O	      2.18023      2.09770      2.02323         0.112477     -0.005289      0.045001
O	      4.19570      4.17175      2.13737         0.018540      0.015396      0.136767
O	      4.27719      2.06920      4.12814         0.053556     -0.038780     -0.003298
O	      6.29717      4.03887      4.32078         0.050704     -0.085177     -0.061662
O	      6.34261      2.09969      6.36456         0.031371      0.102431     -0.016562
O	      8.36419      4.10512      6.21952        -0.086532      0.014076     -0.006295
O	      2.11585      4.17282      4.26760        -1.199053     -0.068105      0.048010
O	      4.21314      6.28514      4.06946         0.029923      0.030293     -0.034081
O	      4.25171      4.18815      6.30131         0.019862     -0.023535      0.056161
O	      6.28980      6.17819      6.38190         0.029709     -0.023161     -0.056754
O	      6.26137      4.03958      8.43914        -0.069363     -0.171180     -0.336650
O	      8.46153      6.27147      8.43986         0.561692     -0.042406      0.017611
O	      2.04548      6.37939      6.35174         0.146201     -0.054531     -0.014700
O	      4.13034      8.38409      6.45223        -0.067767     -0.044570      0.424876
O	      4.16070      6.46384      8.58156        -0.034841      0.143471     -0.003219
O	      6.18981      8.39440      8.62206        -0.015822      0.023414      0.245506
O	      6.17205      6.38071     10.62766        -0.008371     -0.002211     -0.059811
O	      8.26454      8.46988     10.64143         0.211401     -0.098547      0.029740
