# total energy = -235.55345268 eV
 
CRYSTAL
PRIMVEC
0.012077 6.343082 6.209462 
6.316070 0.005834 6.215805 
4.220840 4.243143 -0.006333 
PRIMCOORD
36 1
Li	      6.38324      6.37581     12.39472        -0.032143      0.008572     -0.065115
Li	      8.42209      8.42757     12.39130        -0.040454     -0.021579     -0.008623
Li	      8.52875     10.49612     10.38714         0.091951     -0.008068      0.076086
Li	      6.28317      2.14706      8.14841        -0.043007      0.017731     -0.026792
Li	      4.30177      2.10214      6.25175         0.024911     -0.016221     -0.049805
Li	      6.31860      4.12186      6.28061        -0.024603     -0.070460     -0.019105
Li	      8.38500      6.45159     10.38661        -0.032779      0.073068     -0.033816
Li	      4.13136      6.40160      6.29124         0.026663      0.040430     -0.091737
Li	      4.26613      4.21538      8.27914         0.034972     -0.067463     -0.061685
Ti	      8.36338      4.35507      8.09719        -0.011803      0.170040     -0.903421
Ti	      6.33243      6.31648      4.22443        -0.149357     -0.241657      0.500481
Ti	      4.18581      4.30968      4.23500         0.237309      0.170721      0.489001
Cr	      4.20803      8.45282      8.22325         0.072272      0.106494     -0.080266
Cr	      6.48528      8.37155     10.43351        -0.627316     -0.276393     -0.111086
Co	      2.09471      4.32138      6.24301        -0.032960      0.184659     -0.033297
Co	      6.30811      6.32096      8.25682         0.026627      0.171480      0.142073
Co	     10.47312      8.55169     10.42235        -0.438366     -0.348776      0.005521
Cu	      2.18952      6.35637      8.19688         0.021992      0.018016      0.012427
O	      2.17678      2.23490      2.18270        -0.008730      0.050346     -0.027739
O	      4.08998      4.17131      2.15906        -0.045234     -0.019583     -0.009807
O	      4.18657      2.22456      4.07146        -0.217011      0.089623     -0.032169
O	      6.23105      4.30657      4.05545        -0.140574      0.195705      0.115000
O	      6.29443      2.12767      6.02292        -0.021319      0.029879      0.417430
O	      8.38523      4.23340      6.29142        -0.065844      0.018724      0.746165
O	      2.20944      4.12052      4.10347        -0.129554      0.060458     -0.066602
O	      4.35885      6.25413      4.12191         0.275564     -0.435777     -0.016369
O	      4.21109      4.20992      6.08048        -0.102366      0.071484     -0.331573
O	      6.37078      6.40408      6.08053        -0.031226      0.004753     -0.317484
O	      6.41439      4.20261      8.37858         0.213441      0.194315      0.044792
O	      8.42878      6.22850      8.26717        -0.160839     -0.313174     -0.013091
O	      2.13190      6.28819      6.30370         0.038403     -0.136883     -0.074661
O	      4.25749      8.46172      6.20046         0.122559      0.027198      0.223691
O	      4.25981      6.47414      8.27985         0.050892     -0.088076      0.035023
O	      6.21880      8.43783      8.41631        -0.039664     -0.118842     -0.161221
O	      6.34638      6.40940     10.34610         0.027633      0.356309     -0.199632
O	      8.30269      8.45451     10.32120         1.129961      0.102948     -0.072595
