# total energy = -238.47139913 eV
 
CRYSTAL
PRIMVEC
0.006726 6.384311 6.370835 
6.274067 0.023194 6.354201 
4.179040 4.241498 0.018966 
PRIMCOORD
36 1
Li	      4.18106      4.21262      0.05688         0.033568     -0.036407     -0.082218
Li	      4.26181      8.60354      8.46815         0.004116      0.006447     -0.099014
Li	      6.27581      8.51218     10.56484         0.156871      0.014725     -0.031736
Li	      4.17633      6.33918      2.21391        -0.102957      0.051577      0.025221
Li	      2.12741      4.24347      2.21196         0.039438      0.010456      0.144255
Li	      2.05950      2.17421      4.20489        -0.123544      0.130895      0.067397
Li	      2.08490      6.29680      4.21654        -0.002927     -0.068046     -0.027871
Li	      6.20457      8.52866      6.39348        -0.023418      0.000496     -0.058641
Li	      6.30121      6.42610      8.49416         0.026934     -0.025037     -0.001011
Ti	      2.04293      2.04520      0.10613         0.075713     -0.435516     -0.101985
Ti	      4.25259      6.51088     10.54578         0.527273     -0.429770     -0.310936
Ti	      8.30706      6.40039      6.45219        -0.575124      0.143892      0.847355
Cr	      6.22018      4.23933      2.17838         0.105954     -0.382683     -0.094310
Cr	      0.06818      4.22260      4.21727        -0.147097      0.014423     -0.459499
Co	      4.04878      4.32475      4.20179         0.163566      0.161789     -0.274988
Co	      6.29314      4.24337      6.43975        -0.026950      0.088647      0.040852
Co	      8.32246      8.46394      8.52496         0.322610     -0.019995      0.117117
Co	      4.25028      6.40127      6.36331        -0.051809      0.164578     -0.226794
O	      2.11253      2.08352      1.97014        -0.030342     -0.117744     -0.290931
O	      4.25415      4.23535      2.25890         0.139121     -0.096297      0.242936
O	      4.20567      2.01261      4.34955         0.053605     -0.244320      0.115511
O	      6.34167      4.25643      4.21350         0.363562      0.081581     -0.087128
O	      6.30814      2.16097      6.34227         0.122940     -0.028835     -0.010562
O	      8.39902      4.29533      6.27683        -0.084965      0.065077     -0.134206
O	      2.06582      4.26541      4.24718        -0.242564     -0.022054      0.082762
O	      4.17945      6.41612      4.30884         0.043839      0.167733      0.661715
O	      4.18972      4.15731      6.22845         0.049625     -0.301306      0.230203
O	      6.37236      6.33797      6.39578         0.502505     -0.111482     -0.042804
O	      6.19836      4.25166      8.51976        -0.528673     -0.054160      0.207224
O	      8.37908      6.36814      8.33806        -0.050803      0.326835     -0.771318
O	      2.08167      6.50274      6.45691         0.054742      0.480482      0.238092
O	      4.07435      8.49091      6.28216        -0.271439      0.000445      0.032694
O	      4.13655      6.41208      8.56042        -0.185354     -0.176292      0.005374
O	      6.35788      8.60591      8.47474         0.155941      0.445755      0.016374
O	      6.16868      6.31182     10.55906        -0.649401     -0.040875      0.044581
O	      8.42008      8.62193     10.72097         0.155444      0.234984     -0.013710
