# total energy = -228.98947338 eV
 
CRYSTAL
PRIMVEC
0.021187 6.227679 6.242854 
6.348312 0.011433 6.252894 
4.234185 4.160729 0.005221 
PRIMCOORD
36 1
Li	      8.47472      8.32733     12.37400        -0.027538     -0.023099     -0.006870
Li	      6.43396      8.21176     10.43742         0.111773      0.055881     -0.019385
Li	      6.34263      2.10278      8.31726        -0.037807     -0.006255      0.006061
Li	      4.19743      4.08107      4.23383         0.022784     -0.015899      0.027427
Li	      4.24337      2.14530      6.18247        -0.033044     -0.008674      0.028328
Li	      8.40681      6.41222     10.38704        -0.003937      0.016754      0.018985
Li	      2.16589      4.14294      6.24685         0.006651      0.005974      0.018079
Li	      8.47313      8.20668      8.47496         0.039851      0.009963     -0.049145
Li	      6.42465      6.33851      8.40720         0.020807     -0.006674     -0.018762
Ti	      6.39417     10.27896      8.33758         0.058907     -0.370774     -0.148557
Ti	      8.44438      4.33214      8.34641        -0.043769      0.700715      0.028707
Ti	      4.27055      6.26517      6.18350        -0.028668     -0.038991     -0.170123
Cr	      2.13642      2.07334      4.15057        -0.000406      0.030208      0.045195
Cr	      6.32543      4.03828      6.26718        -0.011866     -0.165467      0.021010
Cu	      6.40176      6.28373     12.42666         0.019913      0.061184      0.017770
Ni	      8.53034     10.35846     10.44078        -0.031635      0.053022     -0.008719
Ni	     10.53010      8.37051     10.40509         0.087878     -0.086146     -0.051155
Ni	      4.22229      2.10325      2.11897         0.069749     -0.061035     -0.057561
O	      2.13030      2.02965      2.14402        -0.124156     -0.019230      0.016139
O	      4.23431      4.17620      1.91529        -0.049847      0.052612      0.161495
O	      4.10040      2.04603      4.14361        -0.025096      0.042426      0.091208
O	      6.33174      4.20602      4.14052        -0.057055      0.056051     -0.017985
O	      6.30766      2.22599      6.21517         0.010317      0.105547      0.078867
O	      8.26975      4.17077      6.32804        -0.110890      0.047897      0.142259
O	      2.11735      4.07874      4.01843         0.042858     -0.040301     -0.133922
O	      4.30605      6.25533      4.27776         0.011251     -0.088451      0.178923
O	      4.41010      4.25944      6.27144        -0.027043      0.144638      0.006772
O	      6.27411      6.12648      6.20849        -0.109215      0.039476     -0.079772
O	      6.49168      4.15378      8.24678         0.148281     -0.018484     -0.060478
O	      8.48382      6.14409      8.34733        -0.033443     -0.646381      0.019867
O	      2.29823      6.19835      6.37116         0.177672      0.004459      0.146667
O	      4.34336      8.20570      6.27982        -0.068522     -0.198032     -0.039975
O	      4.11583      6.24387      8.28562        -0.110133     -0.063649     -0.080186
O	      6.31598      8.42952      8.37198         0.121804      0.402720     -0.047110
O	      6.33813      6.22493     10.53676         0.121942      0.085919     -0.081307
O	      8.54970      8.35910     10.41921        -0.138368     -0.057901      0.017250
