# total energy = -229.36202128 eV
 
CRYSTAL
PRIMVEC
-0.013572 6.494175 6.155636 
6.122939 -0.001373 6.143714 
4.091835 4.331957 -0.010648 
PRIMCOORD
36 1
Li	      6.14299      0.10384      6.17772         0.000471      0.079160      0.014571
Li	      6.09354     10.56441      8.14296         0.005728     -0.060062     -0.008070
Li	      6.09119      8.64284     10.19315         0.011580     -0.018971     -0.001521
Li	      6.15488      2.26948      8.16017         0.011709      0.025940     -0.012599
Li	      2.03342      2.19736      4.06719        -0.004198      0.009671     -0.011115
Li	      6.10889      4.35505     10.13845         0.027154      0.029543     -0.036229
Li	      6.08952      8.63290      6.23564        -0.012591     -0.017779     -0.000832
Li	      8.16696      8.61062      8.24074         0.030567     -0.085469      0.006781
Li	      6.10184      6.54674      8.21646        -0.012460     -0.004033      0.029084
Ti	      4.16866      4.38925      3.98127         0.159939      0.005011     -0.360280
Ti	      8.01744      6.56139     10.24322        -0.480344      0.111254      0.042457
Ti	      4.09146      6.47245      6.30772        -0.007293      0.030272      0.477438
Cr	      8.18999      4.39469      8.16635        -0.060137      0.055234     -0.100224
Cr	      6.13482      4.32795      6.16011         0.120125     -0.007376      0.042815
Cu	      8.11740      2.13185      6.15699        -0.066388     -0.064451     -0.054903
Cu	      4.10231      2.16722      2.05696        -0.029636     -0.032730      0.082251
Ni	      4.09655      6.44744     10.20421         0.015744     -0.077815     -0.039682
Ni	      4.07570      2.22617      6.18450        -0.063800      0.021658     -0.044410
O	      5.91564      8.59064      8.20768         0.244319     -0.064338     -0.018083
O	      2.21054      2.40286      1.96139        -0.162495      0.023482      0.025832
O	      4.10440      4.52793      2.10964         0.011532      0.120554      0.208910
O	      4.05698      2.29873      3.99046        -0.019647      0.149631      0.073188
O	      6.09647      4.37292      4.10317        -0.259173      0.010904      0.029293
O	      6.15163      2.34324      6.13832         0.065403     -0.009845     -0.080427
O	      8.14437      4.54178      6.11154         0.027342      0.027875      0.066949
O	      2.12961      4.45020      4.01639         0.079849      0.019850      0.054172
O	      4.04052      6.35283      4.22379        -0.036726     -0.003095      0.014449
O	      4.11468      4.30583      6.06817         0.017041      0.134630     -0.071101
O	      6.03015      6.39714      6.14188        -0.184284     -0.013057     -0.032774
O	      6.23811      4.30435      8.12157        -0.035453     -0.031725      0.066038
O	      8.15451      6.45647      8.28217         0.021743      0.043078      0.176141
O	      2.12116      6.33233      6.05618         0.060855     -0.119857     -0.030982
O	      4.02549      8.43196      6.30555         0.018085     -0.124177     -0.118839
O	      4.00771      6.24690      8.16360         0.006492     -0.021190     -0.413007
O	      6.15426      6.44269     10.30313         0.475877     -0.004635      0.036373
O	      8.17892      8.50318     10.30532         0.023071     -0.137142     -0.011664
