# total energy = -228.84429228 eV
 
CRYSTAL
PRIMVEC
0.075954 6.029236 6.126827 
6.656268 0.041302 6.163212 
4.470058 4.074626 -0.003949 
PRIMCOORD
36 1
Li	      2.20666      2.03024      0.09223        -0.057405     -0.021967     -0.002085
Li	      2.30308      0.17440      2.01121        -0.039422     -0.008057      0.052436
Li	      4.19321      1.96088      2.05987        -0.034058     -0.032324     -0.007852
Li	      0.20537      2.07467      1.98743         0.081902      0.036388     -0.006933
Li	      2.23636      2.01424      4.00717        -0.015366     -0.028980      0.034651
Li	      8.91255      6.06937      6.15075        -0.005662     -0.014515     -0.006117
Li	      6.79173      4.15930      6.13323        -0.085089      0.033594     -0.003979
Li	      4.53291      6.09656      6.18677         0.140536      0.004994      0.018579
Li	      6.73214      6.02629      8.18488        -0.008518     -0.051121     -0.023932
Ti	      4.52117      4.11938      3.92311         0.177069      0.046243     -0.134923
Ti	      6.72181      7.96698      6.23848        -0.016985     -0.681564      0.017408
Ti	      4.58090      4.02093      8.15533         0.236355      0.160607     -0.066519
Cr	      6.68237      0.08766      6.18433        -0.027803      0.126752      0.088478
Cr	      6.62491      2.07005      4.06665        -0.044933      0.110572     -0.010765
Cu	      4.41451      0.07733      4.09905        -0.040548      0.058974      0.126347
Cu	      8.87826      4.08839      8.13841         0.008870      0.153184     -0.014008
Cu	      4.55757      8.03500      4.07347        -0.021405     -0.066121     -0.076722
Ni	      2.31988      6.05754      4.11514        -0.048788      0.092754     -0.046351
O	      2.21767      2.16356      2.02778         0.037560     -0.015084     -0.033172
O	      4.50709      4.10490      2.05326         0.197749      0.014801      0.182544
O	      4.60370      2.09255      4.07476         0.091848      0.076684     -0.014935
O	      6.42896      4.04163      4.15593        -0.238522     -0.010807      0.007510
O	      6.68123      1.93485      6.05569         0.033185     -0.042888      0.041728
O	      9.19899      4.07084      6.07375         0.015715     -0.096405     -0.040811
O	      2.51221      4.02760      4.21334         0.188805     -0.093534      0.077749
O	      4.41861      6.04313      4.13781         0.018238     -0.151145     -0.016301
O	      4.30425      4.06335      6.22540        -0.065516      0.004981      0.079093
O	      6.70694      6.13861      6.15540         0.008592      0.612237      0.004277
O	      6.48772      4.05273      8.27687        -0.378676     -0.042629     -0.093779
O	      8.90872      6.11842      8.22831        -0.030219      0.018423     -0.097929
O	      2.05555      5.98889      6.14853         0.021235     -0.034767      0.093865
O	      4.70897      8.14695      6.06409         0.081735      0.006223      0.121435
O	      4.45064      5.96791      8.26639        -0.097269     -0.172385     -0.193143
O	      6.85445      8.07707      8.15806         0.019448      0.009112     -0.147482
O	      6.86716      6.04167     10.33289         0.096695      0.069724      0.018163
O	      8.72356      8.16816     10.15606        -0.199353     -0.071954      0.073477
