# total energy = -234.35835609 eV
 
CRYSTAL
PRIMVEC
0.014156 6.100970 6.269082 
6.342061 -0.010949 6.293771 
4.229162 4.085216 -0.008217 
PRIMCOORD
36 1
Li	      2.14765      2.03430      0.17091         0.026569      0.006322     -0.019165
Li	      4.16474      2.04332      2.12147        -0.010180      0.032016      0.004795
Li	      6.32845      8.13218     10.32584        -0.002541     -0.008143     -0.002873
Li	      0.14437      2.05764      2.16502        -0.052389     -0.015991      0.053382
Li	      2.10417      3.91589      2.20201         0.022851      0.053839      0.057960
Li	      2.12104      2.09625      4.02085        -0.015988      0.077291      0.025586
Li	      0.07330      4.03000      4.10117         0.083876      0.007662     -0.092585
Li	      6.33395      8.14453      6.32018         0.067188      0.027900     -0.097424
Li	      8.33041      8.12034      8.40275         0.008834     -0.027771     -0.040857
Ti	      4.36327     10.10265      6.34251         0.363296     -0.131670      0.122056
Ti	      8.43676     10.06600     10.32271        -0.041779     -0.407792     -0.046240
Ti	      6.38243      3.98743      6.42387        -0.047071     -0.024277      0.431867
Cr	      4.21941      4.04459      4.11248        -0.052083      0.095183     -0.070990
Cr	      8.42744      6.12199      6.31868        -0.177951      0.097597      0.190867
Fe	      4.23490      6.23713      6.23411         0.002367     -0.160482      0.081953
Co	      8.48309      6.10460     10.32822         0.093643      0.019802      0.009910
Cu	      6.33377      4.08474      2.10984        -0.073930     -0.134212     -0.014506
Ni	      6.38228      6.22690      8.40693        -0.012628     -0.142943      0.089035
O	      2.11373      1.90842      2.09003         0.024508      0.136064     -0.011113
O	      4.19268      4.07053      1.99368        -0.076376     -0.028423     -0.121973
O	      4.22013      2.01934      4.30468        -0.016396     -0.023383     -0.030761
O	      6.43189      4.04958      4.35391        -0.003052      0.008920      0.173570
O	      6.22362      2.01918      6.33729         0.011815      0.073499      0.001990
O	      8.42336      4.11102      6.20786        -0.103166     -0.059473     -0.021245
O	      2.27474      4.11498      4.16441         0.071609     -0.022654      0.010029
O	      4.27541      6.05828      4.30482        -0.063830      0.020268     -0.139174
O	      4.35728      4.08559      6.17234         0.113852     -0.066213      0.008045
O	      6.32435      6.03244      6.33037         0.096107     -0.067868     -0.048525
O	      6.37944      4.09556      8.24995         0.028872     -0.116253     -0.412242
O	      8.38705      6.15429      8.31449         0.063011      0.015221     -0.178353
O	      2.03236      6.14796      6.13471        -0.208116     -0.000722     -0.049897
O	      4.23808      8.20209      6.24709         0.008252      0.271490      0.015020
O	      4.30043      6.10955      8.38456         0.021771      0.024878      0.055469
O	      6.35205      8.23441      8.33000        -0.057361      0.044723      0.024707
O	      6.19124      6.10409     10.60158        -0.080655      0.014240      0.088126
O	      8.46715      8.23622     10.43227        -0.012931      0.411353     -0.046442
