# total energy = -233.75256120 eV
 
CRYSTAL
PRIMVEC
-0.011691 6.281088 6.355650 
6.398306 -0.060336 6.404414 
4.224066 4.178695 0.000798 
PRIMCOORD
36 1
Li	      4.34541      8.22087      8.67732        -0.000679     -0.004191      0.026300
Li	      4.05593      0.08066      4.16723         0.002071      0.000073     -0.008496
Li	      6.24972      2.23825      4.15354        -0.029613     -0.009703     -0.005464
Li	      6.40356      6.05719      4.30280        -0.006316      0.063654     -0.056027
Li	      4.46381      4.10578      4.32544        -0.034916      0.011142     -0.032571
Li	      6.23389      4.25578      6.14422         0.011619     -0.023394     -0.064236
Li	      6.43509      8.28057      6.49296        -0.029292      0.004764      0.029048
Li	      4.37848      6.07848      6.48596         0.059065     -0.014535      0.068227
Li	      4.17266      4.24502      8.37983        -0.005949     -0.024300      0.014035
Ti	      4.23951      4.19161      0.05095         0.014460     -0.050621      0.126511
Ti	      8.47593      2.10806      6.43800         0.025276      0.080223      0.026065
Ti	      2.19283      6.21048      4.16522         0.136718     -0.095507     -0.009270
Cr	      4.20935      8.36339      4.25446         0.026828     -0.027760      0.092660
Cr	      6.27527      6.31503      8.49689         0.104857     -0.054151     -0.238616
Fe	      2.11431      4.13615      2.16397         0.050170     -0.028765      0.023988
Co	      4.04349      2.31882      6.12112        -0.123134      0.205827     -0.037556
Ni	      6.50432     10.31516      8.62870        -0.069714      0.042710     -0.187203
Ni	      6.38333      2.08527      8.50064        -0.031992      0.009217     -0.016917
O	      2.08712      2.00239      1.94812         0.037203      0.051902     -0.230162
O	      4.19465      4.22745      1.94294         0.011634     -0.058196     -0.245117
O	      4.21993      2.05785      4.35162        -0.002487     -0.008428      0.016909
O	      6.36095      4.15710      4.20519        -0.032706      0.011853      0.201410
O	      6.51357      1.94282      6.40698         0.144109     -0.061183     -0.120400
O	      8.63874      4.04062      6.36348         0.083136     -0.149229     -0.008173
O	      2.00401      4.30363      4.30651        -0.007609      0.187273      0.047748
O	      4.10502      6.33059      4.19000        -0.186328      0.003561      0.103096
O	      4.27936      4.08713      6.38922        -0.036979     -0.151057     -0.009417
O	      6.40947      6.21845      6.52293         0.004040      0.039330      0.122426
O	      6.45719      4.15683      8.67118        -0.064327      0.123173      0.030606
O	      8.45080      6.24765      8.64207        -0.046093      0.035154      0.252469
O	      1.98450      6.34594      6.27487        -0.135342      0.054530     -0.032596
O	      4.09335      8.49659      6.28359        -0.090297      0.131115     -0.005527
O	      4.31563      6.22834      8.49266         0.166878      0.017651      0.047308
O	      6.34075      8.28867      8.51112        -0.011057     -0.199704     -0.008748
O	      6.49534      6.15494     10.68090         0.034262     -0.004775      0.026043
O	      8.59044      8.16506     10.80320         0.032504     -0.107655      0.061648
