# total energy = -238.31636845 eV
 
CRYSTAL
PRIMVEC
0.025192 6.229568 6.497706 
6.241236 0.005484 6.518600 
4.144206 4.149556 0.021090 
PRIMCOORD
36 1
Li	      4.28284     10.28816      6.57927         0.025373     -0.034432     -0.006290
Li	      2.16557      8.21073      6.54706         0.009165     -0.020558     -0.025673
Li	      1.95029      0.09392      2.02538         0.007627     -0.002022     -0.053479
Li	      4.16517      8.33683      8.49557        -0.018216      0.032483     -0.157680
Li	      8.28987      4.18984      4.50472        -0.045320      0.032443      0.130689
Li	      0.09703      1.99569      2.16667        -0.049988     -0.033100     -0.032245
Li	      4.12895      4.17945      4.27380         0.052446     -0.063441     -0.099277
Li	      6.27443      4.14843      6.52752        -0.019491     -0.005918      0.001620
Li	      2.02435      4.23393      6.49976        -0.013165      0.037212     -0.009167
Ti	      6.18890      2.26455      4.45055        -0.167051      0.391909      0.264223
Ti	      2.22987      3.98146      2.08777         0.513766     -0.379904     -0.298172
Ti	      6.16206      6.26065      8.73029        -0.149351     -0.035754     -0.282245
Cr	      4.16180      2.09925      6.51047        -0.029372      0.036706      0.044801
Cr	      4.15798      6.24210      6.47848        -0.077727      0.143471      0.137164
Fe	      4.17423      4.15993      8.67167         0.067245     -0.051765      0.012742
Co	      4.13659      8.31214      4.45768        -0.003199     -0.007560     -0.490192
Co	      2.11896      6.15989      4.42685         0.066777     -0.020436     -0.386916
Cu	      2.10566      2.01764      4.26490         0.129590     -0.103687     -0.037499
O	      2.06244      2.15325      2.05508         0.005350      0.482732      0.005128
O	      4.06256      4.14650      2.15239        -0.596217     -0.042402      0.045437
O	      4.19164      2.09758      4.50056         0.155935      0.002576      0.066618
O	      6.24951      4.12342      4.34299        -0.015666     -0.377101      0.069469
O	      6.16898      2.09295      6.32978        -0.006198      0.020629     -0.249132
O	      8.27987      4.26633      6.68872         0.005950      0.024684      0.170013
O	      2.06163      4.09762      4.14786        -0.061623      0.335761      0.134027
O	      4.22926      6.17624      4.48040        -0.361131      0.246081     -0.040465
O	      4.19064      4.14091      6.70587        -0.021811     -0.032432     -0.074855
O	      6.27334      6.26195      6.76851         0.012662     -0.008301      0.226420
O	      6.22258      4.25615      8.78805         0.098179      0.189752     -0.131620
O	      8.26414      6.23606      8.63284        -0.055508     -0.000111     -0.031358
O	      2.19380      6.19331      6.45133         0.095166     -0.005586      0.241352
O	      4.19062      8.21544      6.45625        -0.003938     -0.199557      0.475361
O	      4.25228      6.19491      8.58482         0.207102      0.009377      0.012548
O	      6.27310      8.22956      8.84227        -0.025439     -0.179192      0.126853
O	      6.24494      6.32706     10.70579         0.205507     -0.260992      0.115439
O	      8.22550      8.29832     10.75379         0.062570     -0.121565      0.126361
