# total energy = -238.07592719 eV
 
CRYSTAL
PRIMVEC
0.008637 6.291917 6.277492 
6.300219 0.016580 6.269873 
4.209739 4.198988 0.001389 
PRIMCOORD
36 1
Li	      8.40404      8.40733     12.51671        -0.007090     -0.052734      0.028753
Li	      4.32757      8.24923      8.35326         0.012848     -0.058545     -0.010501
Li	      4.16045      6.28906     10.31851         0.003942      0.045663     -0.020367
Li	      6.32163      8.44413     10.38834        -0.039455      0.027961     -0.020416
Li	      6.28836      2.09730      8.32781        -0.028424      0.022802      0.012596
Li	      6.30750      4.19233      6.18251         0.035752     -0.017002     -0.014987
Li	      6.26653      8.36112      6.41463         0.005062      0.065034      0.028818
Li	      4.27043      6.36228      6.37951        -0.025314      0.033932     -0.011354
Li	      6.19663      6.42072      8.34235         0.109850      0.012493     -0.002341
Ti	      0.12222      6.32200      6.26691         0.582288      0.020397     -0.059278
Ti	      2.02300      4.04556      2.07074        -0.201756     -0.388355     -0.317308
Ti	      8.32560      6.34460      6.26667        -0.249526      0.028076      0.168905
Cr	      4.24398      4.23246      4.18377         0.144449     -0.013807      0.060162
Cr	      4.19627      4.28519      8.34408        -0.143086     -0.133166     -0.111552
Fe	      4.15017      8.35880      4.27662         0.257370      0.013059     -0.049380
Co	      6.35266     10.45388      8.38635         0.126542      0.219471     -0.088454
Co	      8.42078      6.34632     10.42030        -0.285585      0.103176      0.214813
Ni	      6.32287      6.26741      4.21348        -0.053875     -0.059677     -0.021668
O	      2.07387      2.18999      2.10187        -0.045083      0.271481     -0.073025
O	      4.06758      4.19567      2.11628        -0.058143      0.021150     -0.017016
O	      4.18466      2.20674      4.29519         0.081553     -0.007085     -0.003339
O	      6.20853      4.25980      4.14152         0.011627     -0.235439     -0.329189
O	      6.18489      1.95350      6.25960        -0.024384     -0.075577     -0.024545
O	      8.45157      4.27485      6.40638        -0.023920      0.023750      0.114669
O	      2.13941      4.20767      4.08009         0.000282      0.255174      0.092015
O	      4.21241      6.28830      4.23661        -0.155514     -0.014494     -0.029001
O	      4.25235      4.09503      6.24973         0.017694     -0.085429      0.020273
O	      6.45246      6.28178      6.25119         0.277948      0.001479      0.060418
O	      6.39017      4.19878      8.45871         0.039614     -0.022034      0.019325
O	      8.41486      6.31403      8.28124        -0.000662      0.044023     -0.442982
O	      1.99402      6.35357      6.29923        -0.269981     -0.113719      0.563833
O	      4.20908      8.51723      6.21842        -0.001358      0.035503      0.115067
O	      4.25148      6.22261      8.33950        -0.105373      0.126619      0.030355
O	      6.44107      8.44812      8.36874         0.060858      0.091562      0.072203
O	      6.33437      6.21730     10.60482         0.081652      0.102022     -0.041752
O	      8.50203      8.40529     10.34907        -0.130802     -0.287767      0.086251
