# total energy = -136.02065055 eV
 
CRYSTAL
PRIMVEC
-0.000012 -0.000061 3.944883 
6.271452 6.269780 -0.000050 
-4.201740 4.200626 -0.000059 
PRIMCOORD
24 1
Li	     -1.06915      3.12435      0.98591        -0.001289     -0.023678      0.000654
Li	      1.02508      1.03154      0.98605        -0.025242     -0.001921     -0.000024
Li	      1.07743      5.29301      0.98607        -0.021373     -0.038331     -0.000545
Li	     -1.00545      7.37656      0.98610        -0.037333     -0.021886     -0.000824
Li	      3.10108      7.28510      0.98578         0.065313      0.025294      0.001204
Li	      5.18659      5.20123      0.98609         0.026482      0.063308     -0.000387
Mn	      1.04294      3.14131      2.95851         0.035831      0.036937      0.001141
Mn	     -1.05050      5.24927      2.95834        -0.029041     -0.027842      0.001075
Mn	      3.09261      9.39289      2.95858        -0.003977     -0.006638     -0.001321
Ni	      1.02955      7.32972      2.95840         0.004317      0.000791      0.001159
Ni	      5.19790      7.29733      2.95823         0.059974      0.058754      0.000122
Ni	      3.17037      5.26934      2.95842        -0.028998     -0.033259     -0.000348
O	     -1.11273      3.24644      2.95834        -0.009284      0.057737      0.000970
O	     -3.05404      5.19089      2.95848         0.057165     -0.013129     -0.000045
O	      0.91812      5.20433      2.95845        -0.062160     -0.073428      0.000168
O	     -1.09253      7.21722      2.95844        -0.074906     -0.058781      0.000100
O	      3.12422      7.42008      2.95835        -0.008880      0.094270     -0.000065
O	      1.12042      9.42469      2.95850         0.090720     -0.010312     -0.000455
O	     -1.07064      5.22900      0.98600         0.039684      0.040068     -0.000571
O	      1.01441      3.11297      0.98624         0.003590      0.006253     -0.002184
O	      1.02660      7.32488      0.98605         0.000680      0.005786     -0.001007
O	      3.12727      5.22492      0.98594         0.008225      0.011503      0.000918
O	     -3.13832      3.16404      0.98616        -0.021998     -0.023689     -0.001010
O	     -1.01581      1.08483      0.98580        -0.067499     -0.067807      0.001276
