# total energy = -240.50348066 eV
 
CRYSTAL
PRIMVEC
0.022556 6.314019 6.240790 
6.322193 0.000538 6.262674 
4.206482 4.215813 0.008464 
PRIMCOORD
36 1
Li	      6.35860      6.30223     12.45129         0.003156     -0.021016      0.000934
Li	      4.20098      2.09094      2.13954         0.007451     -0.051783      0.005139
Li	      6.23572      2.08272      4.22694         0.002245     -0.029440     -0.024833
Li	      2.21850      2.20652      4.25776         0.061622      0.000052     -0.016934
Li	      4.12923      4.08069      4.29117        -0.021792     -0.050775     -0.021631
Li	      4.16825      2.25528      6.16661        -0.017653      0.073249      0.069733
Li	      0.10549      4.25421      4.19331         0.007611      0.026275     -0.013507
Li	      2.18913      4.11823      6.14372         0.004315     -0.016389      0.008661
Li	      4.19338      4.22242      8.25540        -0.033654     -0.018556     -0.023654
Ti	      8.49457      8.41623     12.38111         0.153795      0.078254     -0.335720
Ti	      6.28906     10.33411      8.42750         0.021138     -0.697803      0.279077
Ti	      4.18979      6.37251      2.19107        -0.105044      0.233509      0.086525
Cr	      2.17009      4.18909      2.12030        -0.034403      0.022363      0.084725
Cr	      4.23787      6.28668      6.22259         0.093743      0.027020      0.018109
Fe	      4.30024      0.16819      4.15958        -0.062922     -0.137809      0.011717
Co	      6.27067      4.22170      6.19543        -0.077383     -0.051063     -0.148370
Co	      2.05054      6.26247      4.18486        -0.064275      0.026450     -0.011593
Co	      6.34687      6.38909      8.31394        -0.205705     -0.088407     -0.056378
O	      2.01300      2.13358      2.05894        -0.074523     -0.038417     -0.031892
O	      4.27394      4.31669      2.10447         0.032365      0.071419      0.011359
O	      4.22422      2.01873      4.20522         0.010570      0.174449      0.014416
O	      6.42605      4.20488      4.05579        -0.062757     -0.026841     -0.202882
O	      6.45105      2.10337      6.41658         0.146169      0.061704      0.051594
O	      8.44473      4.08868      6.27862         0.050270     -0.134217     -0.009904
O	      2.12933      4.25312      4.06236        -0.000485      0.001724     -0.015808
O	      4.17213      6.34946      4.13342         0.034279      0.015227     -0.153588
O	      4.24611      4.31330      6.23906         0.067745      0.028186      0.078565
O	      6.22449      6.30534      6.31784         0.080202      0.006959      0.378747
O	      6.45273      4.11860      8.34931         0.003019     -0.044548      0.016123
O	      8.55666      6.22695      8.28888         0.024625     -0.021762      0.020468
O	      2.16126      6.40043      6.36235        -0.003144      0.076686     -0.018972
O	      4.07043      8.34313      6.27079        -0.228644     -0.045332     -0.031678
O	      4.09544      6.30994      8.30154         0.039136     -0.045268     -0.030392
O	      6.28518      8.50973      8.31200         0.022993      0.520217      0.044494
O	      6.30364      6.31784     10.33062         0.108019      0.065503     -0.370134
O	      8.40440      8.43955     10.52093         0.017917      0.010178      0.337484
