# total energy = -233.70100554 eV
 
CRYSTAL
PRIMVEC
0.006916 6.255182 6.316993 
6.194664 0.013324 6.310718 
4.148416 4.184569 -0.009754 
PRIMCOORD
36 1
Li	      2.13823      8.38676      6.32478        -0.000403     -0.004560      0.012093
Li	      6.18166      4.19388      2.08028         0.017905     -0.026700     -0.007544
Li	      4.14235      8.38448      8.36285        -0.000956     -0.009930     -0.084299
Li	      4.15962      6.26760     10.52175         0.035854      0.038382      0.016913
Li	      8.27439      4.18829      8.38596        -0.001608      0.005801     -0.003951
Li	      4.11848      4.16649      4.20589         0.002377      0.016387      0.001266
Li	      6.19869      8.36169      6.32613        -0.082081     -0.040166     -0.001872
Li	      4.15091      4.18229      8.40447        -0.035342      0.027439      0.032761
Li	      6.20455      6.25149      8.41888        -0.016191      0.004088      0.032885
Ti	      6.27439      8.45226     10.36494         0.056511      0.115889     -0.559300
Ti	      0.02217      2.02606      2.04753         0.121650     -0.208297     -0.113030
Ti	      4.02975      6.21579      6.49573        -0.206163      0.133874      0.566595
Cr	      8.26383      6.31641      6.34258        -0.022729      0.044222      0.003592
Cr	     10.31128      8.38255     10.49172        -0.004657      0.081866      0.021470
Fe	      2.16744      2.12936      4.14334        -0.003926     -0.101301      0.012936
Cu	      4.13064     10.34909      6.34958         0.091282      0.043065      0.087885
Ni	      6.25229      4.23440      6.35432        -0.005855     -0.000746      0.007118
Ni	      2.06754      6.20033      4.19098        -0.025772     -0.018439     -0.009053
O	      1.98290      2.06709      2.19643        -0.209563      0.014991     -0.122473
O	      4.15228      4.29871      2.01198        -0.014287      0.249823      0.123014
O	      4.17258      2.12321      4.30978         0.172754      0.005256      0.021612
O	      6.23219      4.11516      4.23041         0.022340     -0.093502     -0.082043
O	      6.14424      2.23279      6.37865         0.058300      0.025906      0.055555
O	      8.30898      4.33702      6.32434         0.015941      0.023826      0.000956
O	      1.97076      4.11228      4.19537         0.023051     -0.033314     -0.035932
O	      4.16130      6.31654      4.11160         0.103321     -0.079665     -0.022799
O	      4.15950      4.23837      6.30564        -0.075362     -0.030264     -0.014157
O	      6.22106      6.24021      6.19345        -0.018741      0.197899      0.046268
O	      6.18978      4.09824      8.48764         0.014890     -0.049602      0.052164
O	      8.36654      6.29478      8.37254         0.093030      0.005644     -0.090275
O	      2.13845      6.21032      6.27120         0.247574     -0.046713      0.110773
O	      4.13862      8.15015      6.18797        -0.028755     -0.275292     -0.013420
O	      4.14592      6.28485      8.28839        -0.025653     -0.066847     -0.543769
O	      6.18026      8.34423      8.58016         0.031637     -0.006482      0.676135
O	      6.22856      6.26623     10.65125        -0.213994     -0.009129     -0.193847
O	      8.21119      8.32531     10.53317        -0.116377      0.066591      0.015773
