# total energy = -232.29500797 eV
 
CRYSTAL
PRIMVEC
0.035587 6.166767 6.365342 
6.356193 0.041894 6.358464 
4.260290 4.128904 0.005491 
PRIMCOORD
36 1
Li	      4.24898     10.22692      6.38711         0.104164      0.040667     -0.026016
Li	      2.31519      8.26104      6.43265         0.002214     -0.119769      0.002236
Li	      4.15611      2.10554      2.04587         0.010184     -0.018367     -0.040309
Li	      8.50876      4.15946      4.38157         0.052816     -0.056730     -0.069464
Li	      0.12705      2.09414      2.07994         0.059978      0.080807      0.004955
Li	      2.14601      2.06064      4.17096        -0.019152      0.027766      0.050719
Li	      6.52196      4.15545      6.38130         0.017965      0.002298      0.029585
Li	      4.19277      8.18092      4.32155        -0.062103     -0.006118     -0.067889
Li	      4.18699      6.31278      6.33467        -0.045005      0.021217      0.000222
Ti	      6.41305      2.06355      4.40209         0.449351     -0.274818      0.298104
Ti	      4.27487      4.23528      4.31883        -0.142346      0.727330     -0.080508
Ti	      6.20582      6.13059      8.41156        -0.382367     -0.275826      0.090993
Cr	      2.10084      0.05868      2.10476         0.138172     -0.022079      0.013210
Cr	      2.19709      4.09346      2.07065        -0.057988     -0.264358      0.304563
Fe	      6.17437      8.28714      6.35901         0.153364     -0.047964     -0.121583
Cu	      8.53785      6.15076      6.33600        -0.013945     -0.064299     -0.026870
Cu	      2.16406      6.20979      4.29222         0.058863     -0.016590      0.151950
Cu	      4.28153      4.05716      8.40281         0.105603      0.570577      0.204882
O	      2.17269      2.06307      2.16873         0.013565      0.036582     -0.022851
O	      4.27842      4.16709      2.30249        -0.007183     -0.034604     -0.034614
O	      4.40959      2.13970      4.31540        -0.121456     -0.074206      0.150639
O	      6.28626      4.09572      4.16888         0.026861     -0.039486      0.056692
O	      6.56611      2.11670      6.18660        -0.058229     -0.007594     -0.277008
O	      8.55574      4.21038      6.46505         0.018735      0.269177     -0.085600
O	      2.26530      4.15967      4.22171         0.034941     -0.439698     -0.122191
O	      4.20711      6.09674      4.29995         0.492149     -0.388719     -0.023617
O	      4.19994      4.03128      6.28820        -0.050074     -0.229509     -0.096907
O	      6.23962      6.26723      6.53263         0.036694     -0.021194      0.076414
O	      6.54826      4.25420      8.48854         0.170993      0.086572     -0.069715
O	      8.38163      6.19844      8.34118         0.172921     -0.238491     -0.143776
O	      2.16941      6.09736      6.52548        -0.038882      0.071078     -0.066124
O	      4.32233      8.28246      6.28678        -0.271082      0.021567      0.052595
O	      4.26393      6.07056      8.52797         0.011548      0.221496     -0.040072
O	      6.26249      8.23719      8.47750        -0.177270      0.019107      0.055332
O	      6.45947      6.30804     10.43781        -0.570225      0.104569     -0.127266
O	      8.42167      8.20909     10.42092        -0.113777      0.339611     -0.000712
