# total energy = -234.36322029 eV
 
CRYSTAL
PRIMVEC
0.014190 6.274654 6.322127 
6.157035 0.018760 6.317354 
4.094860 4.170144 0.022300 
PRIMCOORD
36 1
Li	      6.13949      0.05431      6.28728        -0.048408      0.032379     -0.058928
Li	      6.15099      4.17033      2.16216        -0.002502     -0.006195      0.017695
Li	      6.18903      8.36084     10.51940        -0.031935     -0.058189     -0.058101
Li	      8.19581      4.21539      8.45879         0.010184      0.028482      0.045580
Li	      6.14163      6.25287      4.24232         0.002153      0.022572      0.055100
Li	      6.18550      4.20736      6.32160         0.022892     -0.003292      0.015240
Li	      6.18629      4.23894     10.47845         0.025503      0.018788     -0.040954
Li	      8.21704      8.36280      8.47433        -0.024547     -0.023400     -0.019244
Li	      6.17384      6.23566      8.47641        -0.002101     -0.026915     -0.006063
Ti	      8.22329     10.32415     10.52820         0.106823     -0.177648     -0.016625
Ti	      6.19893      2.25307      8.42704         0.050936      0.466334     -0.036759
Ti	      6.11483      8.39254      6.36653        -0.069615      0.015177      0.145207
Cr	      4.17202      4.18056      4.21488         0.038452     -0.050487      0.017401
Cr	      8.20503      6.23113      6.36288         0.006653     -0.004203      0.021494
Fe	      4.06866      2.13192      2.14890        -0.044234     -0.044242      0.019054
Ni	      8.18055      2.09637      6.31849        -0.006703     -0.002775     -0.026623
Ni	      8.10963      6.30289     10.49905         0.001205      0.089648     -0.088315
Ni	      4.14974      6.24671      6.36426         0.037353     -0.048751      0.032281
O	      2.02646      2.09947      2.04383        -0.120082     -0.008603      0.158814
O	      4.09894      4.12868      2.23746        -0.009484      0.161070     -0.005396
O	      4.11529      2.11920      4.24019        -0.005218     -0.034158      0.085895
O	      6.20877      4.17293      4.23809        -0.009349      0.002154      0.000430
O	      6.11750      2.06710      6.47111        -0.084160     -0.027755      0.099878
O	      8.19144      4.24034      6.19537         0.011749      0.067427     -0.050474
O	      2.13084      4.23468      4.34527        -0.069815     -0.174635      0.037884
O	      4.08544      6.17933      4.16041         0.138161      0.064035     -0.081388
O	      4.06194      4.14059      6.26796        -0.019383     -0.065408      0.038837
O	      6.19151      6.39551      6.34030         0.131086      0.053961     -0.027672
O	      6.17528      4.06947      8.45008        -0.006624     -0.457363      0.018299
O	      8.30230      6.26354      8.38175         0.022726     -0.002169     -0.089381
O	      2.10956      6.22254      6.25634        -0.151854     -0.157832      0.090196
O	      4.13724      8.31350      6.39671         0.187971      0.154004     -0.068645
O	      4.10361      6.37519      8.51848        -0.022119     -0.077773      0.116096
O	      6.08774      8.39393      8.27920         0.149973      0.052572     -0.142764
O	      6.05018      6.28342     10.51334        -0.213214     -0.023869     -0.015748
O	      8.19243      8.42359     10.58863        -0.002472      0.247058     -0.182303
