# total energy = -237.60830452 eV
 
CRYSTAL
PRIMVEC
-0.047247 6.432312 6.270735 
6.384675 -0.028288 6.251448 
4.241579 4.259874 -0.003707 
PRIMCOORD
36 1
Li	     10.48120      4.35885      6.27761        -0.017868      0.033741     -0.061398
Li	      8.37106      2.20658      6.25563        -0.002162      0.046936     -0.062756
Li	      4.24823      2.20499      2.14463         0.018165      0.019222      0.001345
Li	      8.31235      4.34720      4.33332        -0.017637      0.107237      0.000909
Li	      6.28068      2.26854      4.31585        -0.020624     -0.054075      0.036426
Li	      2.22377      1.98322      4.10808         0.108436      0.037096      0.043482
Li	      4.39669      1.95566      6.13984        -0.028797     -0.026745     -0.163469
Li	      6.46602      4.13102      6.11587        -0.006347     -0.009553      0.006647
Li	      2.09697      4.27842      6.24038         0.028521     -0.037324     -0.021155
Ti	      2.03353      6.40859      4.33560        -0.123197      0.043611      0.253337
Ti	      4.26133      6.44997      6.34973         0.172854      0.067751      0.102153
Ti	      6.41153      6.55420      8.27547        -0.185051      0.575359     -0.065338
Cr	      6.39319      2.08655      8.25273        -0.030086      0.013671      0.011846
Cr	      4.22966      8.52559      4.19471        -0.031286      0.037431      0.043438
Fe	      8.52347      4.13945      8.14695         0.012695      0.085456      0.191703
Fe	      4.23394      4.23826      8.26580         0.031727     -0.026708     -0.000537
Co	      4.37224      4.03950      4.20551        -0.717214     -0.069670      0.086216
Cu	      2.19119      0.03395      2.14511         0.015153      0.052177      0.020124
O	      1.98084      2.24308      2.09749        -0.021524     -0.229283      0.017430
O	      4.11621      4.36165      2.15412         0.056284      0.091249      0.006909
O	      4.19185      2.25087      4.17627         0.038990     -0.159172     -0.027331
O	      6.25610      4.28046      4.15694         0.576518      0.003415     -0.304585
O	      6.34632      2.11296      6.34796         0.028196     -0.064460      0.037752
O	      8.49263      4.24073      6.27256         0.023460     -0.033237     -0.036854
O	      2.04185      4.44657      4.14561        -0.144561      0.134551     -0.035561
O	      4.10475      6.45753      4.19305        -0.009494      0.139101      0.031106
O	      4.19836      4.48581      6.22582        -0.000867      0.224642     -0.105354
O	      6.23816      6.41297      6.38043        -0.126756      0.053223      0.261109
O	      6.41620      4.22586      8.42482         0.036040      0.046580      0.036815
O	      8.43130      6.31883      8.38858        -0.071314     -0.032722      0.008892
O	      2.18846      6.41118      6.19152        -0.026796     -0.032712     -0.176451
O	      4.23762      8.36334      6.17026         0.001016     -0.227958      0.041284
O	      4.41020      6.41700      8.27916         0.149700      0.031600     -0.185371
O	      6.35767      8.38149      8.38940        -0.009133     -0.590535     -0.095052
O	      6.47061      6.27621     10.34226         0.235923     -0.047211     -0.018232
O	      8.58000      8.33805     10.33832         0.057037     -0.202679      0.120521
