# total energy = -242.16099048 eV
 
CRYSTAL
PRIMVEC
0.004616 6.257365 6.305001 
6.283474 -0.001342 6.310886 
4.196644 4.183210 -0.008537 
PRIMCOORD
36 1
Li	      2.11003      2.08311      0.15194        -0.005320     -0.011621     -0.020272
Li	      2.17925      0.17396      2.09291         0.018884      0.030823     -0.007210
Li	      4.06349      1.99136      2.10979         0.049888     -0.007952     -0.000604
Li	      4.15954      0.02167      4.16033        -0.007871      0.006143     -0.000421
Li	      0.13972      2.05477      2.11372         0.023596      0.007202     -0.026129
Li	      2.10516      2.05536      4.05986         0.013179     -0.025639     -0.030336
Li	      2.11169      6.23567      4.20740        -0.001889      0.008562      0.051487
Li	      6.25142      8.35861      6.32508        -0.039583      0.004582      0.070883
Li	      4.18487      6.28844      6.38234         0.039278      0.013512      0.012545
Ti	      0.12348      6.28290      6.33552         0.631969      0.002954      0.000353
Ti	      4.21005      4.12295      4.24508         0.168606     -0.206671      0.028083
Ti	      4.14916      8.19044      4.28067        -0.157755     -0.194549      0.376560
Cr	      2.12023      4.11676      2.09062         0.005687     -0.007820     -0.048609
Cr	      6.26222      6.27076      8.43555        -0.030051      0.074375     -0.041257
Fe	      4.12930      2.11851      6.27909         0.010976     -0.133708     -0.063576
Fe	      4.13820      4.19101      8.36329        -0.003472      0.001003     -0.025700
Co	      6.34603      8.35770     10.47631        -0.030605      0.064802      0.002287
Co	      6.34945      4.18118      6.25634         0.023817      0.053106     -0.073199
O	      2.09839      2.18774      2.08634         0.011348      0.073237      0.022307
O	      4.11966      4.21299      2.06034        -0.010486      0.018064      0.059243
O	      4.20136      2.23589      4.15319        -0.019837      0.303879     -0.065692
O	      6.13591      4.19990      4.17730        -0.195621      0.008535     -0.030197
O	      6.22434      2.02370      6.23550         0.103308     -0.065626      0.001978
O	      8.44459      4.15494      6.37764        -0.000207     -0.084615      0.027069
O	      2.12187      4.17179      4.13141         0.014766      0.032442     -0.030351
O	      4.18944      6.31627      4.22418         0.018294      0.157349     -0.034468
O	      4.17995      4.24910      6.20883         0.000106      0.028296     -0.086996
O	      6.31459      6.21764      6.45030        -0.172987     -0.035538      0.029832
O	      6.31752      4.21106      8.49482        -0.025745     -0.035471      0.055583
O	      8.29889      6.28053      8.42119        -0.009993     -0.050086      0.091644
O	      1.93103      6.27913      6.35002        -0.577517      0.019588     -0.012930
O	      4.21506      8.44830      6.15752        -0.037751      0.041494     -0.303148
O	      4.26011      6.15353      8.41133         0.054561      0.017119      0.021381
O	      6.37516      8.26141      8.43506        -0.047439     -0.029551      0.019244
O	      6.28692      6.17587     10.57452         0.022484     -0.055748     -0.014084
O	      8.53050      8.31988     10.40069         0.163383     -0.022471      0.044703
