# total energy = -235.25077323 eV
 
CRYSTAL
PRIMVEC
0.029216 6.373756 6.182566 
6.325371 0.021988 6.189851 
4.237558 4.274537 -0.006082 
PRIMCOORD
36 1
Li	      4.19867      8.56052      8.13222        -0.025239      0.032291     -0.007711
Li	      0.06162      2.12096      2.05620         0.005099     -0.008086     -0.026078
Li	      2.12612      4.18693      2.05666        -0.001583     -0.066100     -0.034000
Li	      6.27996      6.48253      4.24764        -0.066881      0.050475     -0.080707
Li	      8.20919      6.37421      6.25563         0.015705     -0.010965      0.026485
Li	      6.38898      4.52997      6.25053         0.037180     -0.000122      0.007282
Li	      6.31650      8.32992      6.19443        -0.022989      0.065210      0.004815
Li	      4.46624      6.45823      6.16134        -0.062052      0.040617      0.011522
Li	      6.37395      6.37951      8.01091        -0.004094      0.004920      0.067185
Ti	      4.23614      0.13044      4.15648         0.038760      0.249655      0.336963
Ti	      6.34436      2.18250      4.17164        -0.045694      0.142878      0.253409
Ti	      4.31761      4.17269      8.03426         0.230337     -0.247205     -0.268207
Cr	      2.15141      6.35118      4.13737         0.008200     -0.047690      0.027348
Cr	      4.19872      4.29902      4.14897         0.040570     -0.046060     -0.059826
Fe	      2.11366      6.46437      8.11048         0.020022     -0.122867     -0.025463
Fe	      4.32726      8.44841      4.14040         0.012097     -0.109401     -0.137274
Cu	      2.15672      2.16984      0.12599        -0.063801      0.015217      0.051140
Ni	      4.21582      4.24884      0.07906        -0.058645      0.016263      0.077000
O	      2.13927      2.00885      2.11567         0.010751      0.214579      0.134399
O	      4.32774      4.23961      2.14569        -0.016091     -0.009512      0.168928
O	      4.36316      2.07826      4.09929         0.191781     -0.085237     -0.013016
O	      6.38501      4.16875      4.12724         0.023358     -0.118647     -0.033327
O	      6.48747      2.08665      6.06501        -0.093110      0.071622     -0.247618
O	      8.48110      4.33615      6.02607        -0.127371      0.101909     -0.367959
O	      2.22148      4.38146      4.07383         0.085143     -0.001514      0.010000
O	      4.10986      6.27429      4.15216        -0.011082     -0.093098     -0.021381
O	      4.26990      4.21640      6.19739        -0.000618     -0.002687      0.245914
O	      6.34241      6.42450      6.13675        -0.044294      0.040773      0.022013
O	      6.19931      4.27627      8.33534        -0.245991     -0.007094     -0.229043
O	      8.44229      6.56438      8.32209         0.029259      0.276213      0.003176
O	      2.04605      6.30751      6.15873         0.074335     -0.334952     -0.217337
O	      4.12602      8.58363      6.12143         0.130319     -0.070513      0.296488
O	      4.16940      6.26194      8.38827         0.009025     -0.079731      0.060997
O	      6.50706      8.61736      8.36066         0.074584     -0.009792      0.090952
O	      6.28497      6.50457     10.29165        -0.056665      0.144113     -0.084985
O	      8.38661      8.54192     10.25137        -0.090328      0.004537     -0.042084
