# total energy = -237.05366518 eV
 
CRYSTAL
PRIMVEC
0.023288 6.136048 6.616860 
6.218619 0.027782 6.612602 
4.141707 4.083524 0.022430 
PRIMCOORD
36 1
Li	      4.13547     10.14684      6.64220         0.114969     -0.056853     -0.117497
Li	      4.15716      8.16772      8.78056         0.117628     -0.098907     -0.068540
Li	      8.26319      4.10991      4.50883         0.029122     -0.038337     -0.010431
Li	      6.20223      2.15297      8.82974        -0.115234      0.044851      0.085351
Li	      2.13229      2.08614      4.37955        -0.010472     -0.014510      0.069843
Li	      6.24537      4.09168      6.65157        -0.082644      0.007822     -0.053620
Li	      4.15746      8.15824      4.47087        -0.081705     -0.028278      0.116314
Li	      2.04593      4.12950      6.53928        -0.013661      0.037496     -0.122016
Li	      4.17158      4.09174      8.78074        -0.082634      0.031992      0.004856
Ti	      6.06609      4.09820      2.25882         0.307390     -0.491372      0.089561
Ti	      4.22721      6.09530      6.58753        -0.050889     -0.114145     -0.683366
Ti	      6.20488      6.03603      8.88582        -0.610941      0.748336      0.540713
Cr	      8.27983      2.08179      6.63291         0.009032     -0.218445     -0.589895
Cr	      6.21833      2.07174      4.42250         0.189575     -0.068030      0.077007
Fe	      2.11523      4.08062      2.25331         0.292385     -0.180850      0.369386
Fe	      4.20002      2.07682      6.59285        -0.161355      0.362633     -0.326651
Cu	      4.13449      4.09803      4.43457         0.185528      0.049373      0.124355
Cu	      2.10931      6.12648      4.41102        -0.031508      0.048165      0.098919
O	      2.07723      1.95466      2.10509        -0.094784      0.829890      0.091964
O	      4.25317      4.08081      2.07588        -0.746959      0.091070     -0.178886
O	      4.18592      2.11574      4.58926         0.013040     -0.380653     -0.148780
O	      6.20916      4.08848      4.23667         0.264185      0.042196     -0.244847
O	      6.21793      2.07774      6.46825         0.087077     -0.031744      0.110325
O	      8.28636      4.11137      6.68679        -0.017496     -0.100763      0.437118
O	      2.16527      4.17505      4.29856        -0.464372     -0.533659     -0.835748
O	      4.12854      6.08580      4.61497         0.595359      0.225668      0.368249
O	      4.15922      4.16232      6.70198         0.046152     -0.050191      0.292371
O	      6.17157      6.18043      6.76180         0.183758     -0.055138      0.192833
O	      6.19474      4.19427      8.89064         0.818593     -0.159835     -0.093256
O	      8.17934      6.20429      8.59501         0.158993     -0.776335      0.120853
O	      2.20532      6.14663      6.84474        -0.113810      0.079755      0.462744
O	      4.08660      8.05590      6.57887        -0.012492      0.084624      0.189511
O	      4.24972      6.16100      8.70925        -0.023859     -0.042203      0.019084
O	      6.23574      8.23257      9.00269        -0.055994      0.139997     -0.095364
O	      6.28705      6.19802     10.84074        -0.594029     -0.015601     -0.434831
O	      8.23334      8.12193     11.22953        -0.047952      0.631981      0.142372
