# total energy = -234.71466850 eV
 
CRYSTAL
PRIMVEC
-0.009489 6.296331 6.208196 
6.259750 -0.007739 6.206408 
4.172414 4.195638 -0.004428 
PRIMCOORD
36 1
Li	      6.28664     10.40501      8.33991         0.023810     -0.038469      0.068605
Li	      6.41539      8.30393     10.22078         0.014024     -0.007225      0.033843
Li	      2.07785      2.22015      4.11816        -0.010757      0.020844      0.024766
Li	      4.04868      4.20429      4.10787        -0.020555      0.010793      0.029087
Li	      6.25411      4.28365     10.31506        -0.000007      0.004207     -0.036394
Li	      8.23900      6.29611     10.31277        -0.000890     -0.011968     -0.014081
Li	      2.04326      4.21266      6.12119        -0.032079      0.004731     -0.056381
Li	      8.21311      8.38088      8.45793        -0.060997     -0.035684     -0.031037
Li	      6.27218      6.37803      8.41433         0.024560      0.027876     -0.013493
Ti	      4.10514      2.16577      6.13150        -0.046574      0.047849     -0.157864
Ti	      6.21830      4.21824      6.09711        -0.074518      0.051308     -0.501347
Ti	      4.08300      6.27678      6.15367        -0.065404     -0.053508     -0.073516
Cr	      0.05825      6.26840      6.13751         0.048655     -0.011770     -0.042527
Cr	      2.07896      4.19193      2.15674        -0.000152      0.030652      0.077120
Fe	      4.32845      8.36457      8.35901        -0.164998      0.048889      0.068664
Fe	      4.20168      6.30704      2.24024        -0.036013     -0.047961      0.021149
Ni	      8.34196      8.35566     12.33044        -0.011421     -0.003828      0.058202
Ni	      4.21520      6.18430     10.23909        -0.043361      0.064457     -0.031271
O	      2.05001      2.16503      2.03358         0.069566      0.043761      0.073327
O	      4.12987      4.20708      2.00763        -0.045796      0.025960     -0.022152
O	      4.15467      2.05028      4.23012        -0.029624      0.106825      0.221772
O	      6.31594      4.17279      4.27344        -0.107326     -0.002636      0.520381
O	      6.19751      2.06646      6.26804        -0.104106      0.012594      0.012468
O	      8.37024      4.25494      6.23273        -0.010987      0.093913      0.101000
O	      2.09118      4.19897      4.05235        -0.044535      0.024136     -0.030621
O	      4.19033      6.27151      4.23291         0.013755     -0.004396      0.222018
O	      4.19275      4.20439      6.21011         0.051964      0.000802     -0.040283
O	      6.24732      6.23252      6.22466         0.026503     -0.064054     -0.038385
O	      6.33347      4.06998      8.16252         0.031687      0.066824     -0.081266
O	      8.42575      6.22754      8.14118        -0.019651     -0.047674     -0.070102
O	      2.11017      6.31217      6.18993         0.109363     -0.133545      0.025825
O	      4.13811      8.38896      6.27932         0.132669     -0.030819     -0.035078
O	      4.15676      6.36290      8.13790         0.001313     -0.051581     -0.203288
O	      6.16387      8.40505      8.28170         0.190453     -0.021092     -0.015768
O	      6.21869      6.28697     10.43147         0.140071      0.035769      0.065343
O	      8.35327      8.41677     10.37150         0.051355     -0.155979     -0.128714
