# total energy = -241.96647903 eV
 
CRYSTAL
PRIMVEC
-0.012393 6.353826 6.198873 
6.322663 -0.008933 6.195332 
4.218059 4.236498 -0.009030 
PRIMCOORD
36 1
Li	      4.17363      4.21142      0.15823        -0.003971      0.021562     -0.017027
Li	      4.19558      2.26527      1.99907        -0.049462      0.061760      0.001819
Li	     10.42474      6.30804      8.18481        -0.018135     -0.032989     -0.031671
Li	      8.53331      4.30571      8.17667         0.057169      0.003706     -0.064047
Li	      4.13848      4.26682      4.07858        -0.060393      0.079420     -0.002082
Li	      4.26581      2.21182      6.31607         0.012726      0.094524     -0.005925
Li	      6.24107      4.16665      6.29540        -0.013709     -0.040074      0.014544
Li	      0.02532      4.18880      4.07387         0.014932     -0.081824     -0.060008
Li	      4.32074      4.13636      8.14665         0.044903     -0.030530      0.037001
Ti	      4.26110      0.01492      4.15775         0.038477     -0.098497      0.208489
Ti	      6.26230      2.17040      4.12935         0.057123     -0.003740      0.333782
Ti	      1.97848      2.20602      4.03247        -0.474162      0.231564     -0.161852
Cr	      2.14938      2.12058      0.04749        -0.011765     -0.033207      0.049828
Cr	      6.32738      8.47734      6.23986        -0.050415      0.075295     -0.065962
Fe	      6.15476      4.22527      2.05573         0.184407      0.061192     -0.086204
Fe	      2.16280      6.32676      4.05381         0.096290     -0.036881      0.022421
Fe	      6.39651      6.16189      8.17102         0.042486      0.070661     -0.047040
Co	      4.22304      6.30882      6.27364        -0.073299     -0.038693     -0.056142
O	      2.14009      2.15238      2.12360         0.039223     -0.001618      0.248926
O	      4.25072      4.24599      2.08640        -0.212857     -0.023122      0.035720
O	      4.28873      2.00245      4.18934         0.033088     -0.087212     -0.009712
O	      6.43714      4.24793      4.17373         0.102806     -0.032178      0.127758
O	      6.42643      2.12358      6.03332        -0.028992      0.012333     -0.310626
O	      8.48936      4.08721      6.06569         0.048827      0.014520     -0.270849
O	      2.10626      4.09258      4.22769        -0.034102     -0.292215      0.009579
O	      4.36142      6.33755      4.11222         0.466776      0.030067      0.081976
O	      4.07244      4.31319      6.19093         0.017998     -0.015449      0.029710
O	      6.37332      6.45508      6.14165         0.041389     -0.007613     -0.115381
O	      6.30533      4.32210      8.25271        -0.016076     -0.148783      0.014776
O	      8.36398      6.33885      8.29865        -0.036217      0.039659     -0.189527
O	      2.06535      6.35177      6.09323        -0.072433     -0.021662      0.072254
O	      4.17742      8.36418      6.18895         0.061913     -0.002533      0.023997
O	      4.17708      6.31666      8.40111         0.101781      0.030151      0.085507
O	      6.31044      8.40245      8.31397        -0.053970     -0.037200      0.066479
O	      6.21810      6.50208     10.25199        -0.169789      0.107519      0.051340
O	      8.31738      8.56533     10.41006        -0.082570      0.132085     -0.021850
