# total energy = -136.48154624 eV
 
CRYSTAL
PRIMVEC
-4.186751 -0.001929 0.000004 
2.090494 -6.233061 3.974026 
-2.090494 6.233243 3.974277 
PRIMCOORD
24 1
Li	     -1.04348     -1.04116      1.02969        -0.001154      0.004867     -0.020365
Li	     -1.04432     -1.04161      4.93050         0.002217      0.008948      0.018153
Li	     -5.22789      3.11865      4.98332        -0.003899      0.005777     -0.010990
Li	     -3.13950     -3.11163      4.95060         0.002736     -0.002979      0.011984
Li	     -3.13695      1.03194      1.00983         0.001826     -0.000448     -0.009907
Li	     -3.13484      1.03214      4.95103        -0.003838     -0.001135      0.008516
Mn	     -3.13597      3.06096      2.98012         0.001164     -0.018887      0.000126
Mn	     -1.04313      1.09393      6.95490        -0.000495      0.015556      0.001037
Mn	     -3.13757     -1.03992      6.95377        -0.000806     -0.002287      0.001017
Ni	     -1.04575     -3.07189      2.98039         0.003017     -0.050562     -0.002115
Ni	     -1.04315      0.99309      2.98081         0.002481      0.051750     -0.002624
Ni	     -3.13759     -1.04026      2.97895        -0.000601      0.000933      0.005508
O	     -1.04407     -1.03927      2.97990        -0.000809      0.002994      0.000196
O	     -1.04408     -1.03946      6.95417        -0.000267      0.004439      0.000301
O	      1.04759     -3.17210      2.98011        -0.002945     -0.118416      0.000855
O	     -5.22981      3.17763      2.97967         0.006072      0.025914      0.003369
O	     -3.13645      1.09401      2.98018        -0.003633      0.113087      0.000935
O	     -3.13645      0.97552      6.95470        -0.000190     -0.030094     -0.000765
O	     -1.04316      1.04494      0.89589        -0.001004     -0.000925     -0.095127
O	     -1.04275      1.04542      5.06575        -0.001279     -0.003407      0.086608
O	     -3.13736     -1.04083      0.90226        -0.002058      0.000394     -0.032242
O	     -3.13740     -1.03960      5.05673        -0.002524     -0.003644      0.037171
O	     -1.04623     -3.12336      5.06481         0.003155     -0.001936      0.092910
O	     -3.13625      3.10910      4.86964         0.002836      0.000060     -0.094553
