# total energy = -239.19894164 eV
 
CRYSTAL
PRIMVEC
0.006764 6.101049 6.352129 
6.355263 0.030149 6.329227 
4.271866 4.087613 -0.015410 
PRIMCOORD
36 1
Li	      6.41571      0.18320      6.25304         0.032370     -0.027210     -0.060630
Li	      8.33947      2.02602      6.28377         0.008083     -0.053726      0.022824
Li	      4.20730      2.04624      2.20804        -0.101605      0.043442      0.127586
Li	      6.30157      2.05587      4.39881        -0.125608     -0.018622      0.005433
Li	      6.39248      2.03638      8.36374         0.145175     -0.088704      0.022101
Li	      2.17268      2.00941      4.21875         0.081349     -0.027444     -0.016710
Li	      4.36188      2.03128      6.23333         0.008070     -0.065865     -0.166878
Li	      8.49528      6.17929     10.58260         0.005512      0.020745      0.010845
Li	      4.23663      6.13167      6.31038        -0.039283      0.053780     -0.044684
Ti	      2.25439      4.00525      1.96999         0.384131     -0.634428      0.030548
Ti	      2.03113      4.12130      6.27540        -0.231742      0.230942     -0.421731
Ti	      6.32409      6.19122      8.48978        -0.293520     -0.096518      0.415788
Cr	      4.24536      4.06251      4.23756         0.042552     -0.173596     -0.071738
Cr	      6.37262      4.04466      6.28935         0.076571      0.082693     -0.283845
Fe	      2.15183      0.09561      2.15206         0.007495      0.058180      0.170587
Fe	      4.18654      8.02498      4.25613         0.221447      0.091814      0.021079
Fe	      8.52704      8.11296      8.43757        -0.111530      0.121555      0.347511
Cu	      4.26250      0.10020      4.25611        -0.122751      0.060094      0.338676
O	      2.14829      2.15715      2.12760        -0.031485      0.451470     -0.052565
O	      4.13844      4.10634      2.20776        -0.136142      0.006580     -0.138736
O	      4.24035      2.04822      4.21951         0.016354      0.706916     -0.031253
O	      6.25881      4.10199      4.25266        -0.238356     -0.027837      0.121698
O	      6.37036      2.13601      6.34498        -0.010943     -0.033707      0.067026
O	      8.40765      4.10369      6.45897         0.009520     -0.026404      0.315894
O	      2.17304      4.05546      4.31151        -0.149614      0.040696      0.053883
O	      4.22024      6.13569      4.21191         0.017214     -0.169479     -0.003397
O	      4.28034      4.07631      6.28726        -0.036141     -0.008952      0.539981
O	      6.39091      6.16248      6.47427         0.059221      0.060067     -0.015215
O	      6.45520      4.12601      8.40498        -0.664611     -0.049417      0.009527
O	      8.33124      6.03196      8.51037         0.252722      0.724290     -0.159772
O	      2.14224      5.99317      6.45124         0.030411     -0.196351     -0.141559
O	      4.45286      8.18000      6.20045         0.083119      0.025769      0.237317
O	      4.37756      6.12175      8.38964         0.156796     -0.521800     -0.387427
O	      6.40087      8.11299      8.30253         0.556153     -0.091615      0.198707
O	      6.38889      6.05195     10.41440         0.349949      0.031669     -0.322255
O	      8.60959      8.28733     10.51193        -0.250885     -0.499028     -0.738613
