# total energy = -240.23954991 eV
 
CRYSTAL
PRIMVEC
0.006666 6.265883 6.421961 
6.223051 0.020960 6.407887 
4.162630 4.181808 0.000018 
PRIMCOORD
36 1
Li	      2.03978      2.07174      0.09352        -0.033712      0.007008      0.047950
Li	      6.19073      4.26702      2.20637         0.054137      0.023160     -0.006356
Li	      4.14868      0.13760      4.26994        -0.060950      0.006965      0.013386
Li	      6.09055      2.09853      4.33634         0.037497      0.094758      0.017091
Li	      2.16148      4.11307      2.13663        -0.077099      0.014511     -0.035071
Li	      2.15032      2.06558      4.19828         0.022539     -0.040270     -0.068878
Li	      4.20713      4.09475      4.16401         0.014463     -0.021050     -0.026761
Li	      4.16796      2.11150      6.24459         0.071543     -0.058889     -0.043303
Li	      2.09987      6.26374      4.28870        -0.008427      0.011464      0.008444
Ti	      6.38358      4.19430      6.24909         0.570894     -0.371093     -0.731176
Ti	      2.15912      4.23228      6.28843         0.026166      0.608209     -0.287621
Ti	      8.20744      8.39824      8.70825        -0.124941     -0.181759      0.251357
Cr	      4.08603      2.13065      2.21712        -0.013007     -0.379228     -0.005528
Cr	      4.19918      6.23064      2.19890        -0.046930      0.054860     -0.039955
Fe	      6.14821      0.10706      6.37250         0.184925      0.021877      0.082775
Fe	      4.15554      8.36839      4.32350        -0.036713     -0.485183      0.073229
Fe	      6.30003      6.22591      8.61369        -0.026874      0.453402      0.093142
Ni	      4.15562      6.25656      6.34359        -0.142060     -0.005326      0.096873
O	      2.08769      2.07890      2.11153        -0.016135     -0.028349      0.057632
O	      4.13675      4.18393      2.10384         0.048785      0.050504     -0.255008
O	      4.15942      2.10470      4.11222         0.047447      0.024968      0.031849
O	      6.21710      4.17112      4.45822         0.036878     -0.000968      0.607254
O	      6.22541      2.24940      6.54191        -0.037764      0.133605      0.052690
O	      8.23121      4.24013      6.41576        -0.958783      0.038377     -0.049958
O	      2.03281      4.15428      4.44202        -0.013292     -0.013603      0.291106
O	      4.16119      6.36485      4.22624        -0.018214      0.126415     -0.050743
O	      4.11046      4.19618      6.52759        -0.153749     -0.079007      0.019694
O	      6.21917      6.24206      6.44956         0.144416      0.046314      0.354993
O	      6.13190      4.10599      8.57201         0.047615      0.041584      0.088153
O	      8.35099      6.43524      8.57983         0.693151      0.198005      0.030916
O	      2.07899      6.11916      6.38076         0.345375     -0.422327      0.013583
O	      4.26708      8.29781      6.44122        -0.004244      0.083876     -0.083075
O	      4.19357      6.23812      8.49936        -0.501892     -0.089518     -0.019273
O	      6.27554      8.38695      8.46827        -0.066626      0.035569     -0.092586
O	      6.24730      6.16476     10.71506        -0.064144      0.077225     -0.154420
O	      8.33702      8.40408     10.55709         0.059725      0.023913     -0.282406
