# total energy = -228.82658933 eV
 
CRYSTAL
PRIMVEC
-0.005532 6.307149 6.297401 
6.272850 -0.024885 6.316890 
4.163075 4.198948 0.002008 
PRIMCOORD
36 1
Li	      6.30424      6.27745     12.54662        -0.001603      0.028796      0.068144
Li	      8.33245      8.39247     12.55791         0.020230     -0.025238      0.050352
Li	      0.03316      2.24645      2.21514        -0.007315     -0.063678      0.009329
Li	      1.89978      4.23029      2.33168         0.054596      0.022985     -0.102199
Li	      2.01028      2.31922      4.18279         0.021086      0.023954     -0.021272
Li	      3.99614      4.26119      4.14774         0.015271     -0.011791     -0.037637
Li	      6.39206      4.22906     10.33972         0.017059     -0.051836      0.058315
Li	      2.05597      6.16917      4.13329         0.001290      0.057740     -0.006498
Li	      6.29847      6.10461      8.50388        -0.018961      0.090348     -0.044322
Ti	      4.07357      2.19016      2.12408        -0.260650      0.262223     -0.078775
Ti	      8.32531      6.18199      6.44027         0.076285     -0.252966      0.332559
Ti	      4.16891      6.28327      6.14056        -0.105929      0.073650     -0.499267
Cr	      6.27411      4.17895      2.14597        -0.128584      0.147958     -0.031620
Cr	      6.31981      8.31573     10.50433         0.085513     -0.117447      0.051266
Ni	      8.36378     10.46804     10.51494         0.018439     -0.046111      0.011078
Ni	      6.26531      4.16348      6.35896         0.044721      0.007299     -0.054311
Ni	      2.09251      4.20512      6.17372        -0.027938      0.008248      0.130511
Ni	      4.26040      4.16626      8.45203        -0.067396     -0.062904      0.042502
O	      2.20651      2.00855      2.14019         0.259215     -0.019333      0.029128
O	      4.26777      4.04321      2.06730        -0.017794     -0.264337      0.019649
O	      4.29438      2.07345      4.14234         0.003344      0.073050     -0.031552
O	      6.28051      3.99856      4.16415        -0.062733     -0.020106     -0.046452
O	      6.12103      2.10906      6.17885        -0.019351     -0.150427      0.010257
O	      8.31433      4.31171      6.24992         0.140043      0.217068      0.115272
O	      2.05376      4.24198      4.22730         0.025129      0.009590     -0.173562
O	      4.16444      6.29853      4.35525        -0.016311      0.038709      0.434165
O	      4.18289      4.24049      6.34872        -0.020792      0.013219     -0.095416
O	      6.28981      6.29389      6.26787         0.011901     -0.008589      0.010746
O	      6.22907      4.16773      8.36868         0.139354     -0.002726      0.111526
O	      8.35867      6.30282      8.25422        -0.005469     -0.148322     -0.376399
O	      2.24047      6.27476      6.42142         0.105453      0.096299      0.024853
O	      4.21782      8.25013      6.46826        -0.131410     -0.057365      0.098306
O	      4.13542      6.34780      8.42534        -0.032510      0.089433     -0.135975
O	      6.24153      8.45699      8.46566        -0.115056      0.006419      0.068921
O	      6.23048      6.46005     10.51836         0.092626      0.071194     -0.021453
O	      8.20173      8.40787     10.51029        -0.091750     -0.035007      0.079832
