# total energy = -235.29148498 eV
 
CRYSTAL
PRIMVEC
-0.004950 6.383269 6.230647 
6.251042 -0.026510 6.252115 
4.134723 4.237344 0.014846 
PRIMCOORD
36 1
Li	      2.18211      6.32875      8.31694         0.008369     -0.007627     -0.027028
Li	      4.18513      6.31869     10.34149         0.050164     -0.030664      0.039504
Li	      6.22039      2.15250      4.14308        -0.025233      0.036470      0.055646
Li	      6.23651      2.29215      8.30545        -0.040886      0.034223     -0.033345
Li	      8.14765      4.21647      8.27188         0.016960      0.024410     -0.036021
Li	      8.26873      6.40260      6.32630        -0.016185      0.024282      0.024944
Li	      6.22160      4.24180      6.40089         0.020424      0.003209     -0.061461
Li	      4.16821      6.27971      6.33712        -0.024055     -0.051790     -0.002307
Li	      6.17560      6.26097      8.24263         0.025706      0.008955     -0.079155
Ti	     10.32692      4.31589      6.39899        -0.143146      0.214914      0.067865
Ti	      6.22361      6.19326      4.28302         0.120587     -0.231866      0.430583
Ti	      8.24035      6.40216     10.28846        -0.191957      0.085302     -0.314081
Mn	      4.23157      8.35441      8.31990         0.015115      0.000226      0.059182
Cr	      2.08294      2.13308      0.04286        -0.046756      0.040390     -0.025818
Cr	      4.13659      4.23868      4.19233         0.077675     -0.072269     -0.071540
Cu	      6.24334      8.45468      6.31695        -0.055477     -0.073560      0.035419
Ni	      6.26395      4.23250     10.31331        -0.005995      0.016529      0.082725
Ni	      4.19316      4.33506      8.26031        -0.082237     -0.040094      0.033546
O	      2.22911      2.09781      2.06905        -0.053933     -0.007976      0.088265
O	      4.17693      4.07514      2.06361        -0.001343      0.039739     -0.071125
O	      4.02536      2.22973      4.20727        -0.047117     -0.008853      0.044818
O	      6.14368      4.32342      4.17038         0.019030      0.154941      0.026101
O	      6.31669      1.96420      6.30277        -0.013709     -0.156834      0.013759
O	      8.44459      4.13541      6.24005         0.185573      0.011954      0.050640
O	      2.10857      4.31987      4.22659         0.075780      0.057125     -0.226638
O	      4.17064      6.29797      4.11830        -0.002852     -0.067223     -0.005533
O	      4.07599      4.24593      6.18541         0.080397      0.010360     -0.110699
O	      6.18898      6.27673      6.09398         0.001694     -0.143330     -0.411706
O	      6.19209      4.24222      8.35788         0.098590      0.008828     -0.170336
O	      8.29443      6.40849      8.46364        -0.000773     -0.091797      0.290275
O	      1.99811      6.52957      6.14532         0.016281      0.115385     -0.020345
O	      4.12375      8.62552      6.13405        -0.075117      0.035891      0.082287
O	      4.17949      6.42735      8.33566        -0.002783      0.032341      0.010644
O	      6.18843      8.46973      8.26464        -0.038428     -0.009117      0.142332
O	      6.35728      6.33178     10.51582         0.166900      0.119079      0.017935
O	      8.32691      8.36792     10.45739        -0.111261     -0.081553      0.070669
