# total energy = -234.96696404 eV
 
CRYSTAL
PRIMVEC
0.002461 6.019569 6.554480 
6.280763 0.014016 6.543926 
4.209950 4.028730 -0.013416 
PRIMCOORD
36 1
Li	      2.15492      8.03419      6.52526        -0.023485      0.037154     -0.014765
Li	      4.21425      8.05916      8.66347        -0.012647      0.009736     -0.026854
Li	      4.14607      6.06822      2.33052        -0.065531      0.020391      0.112377
Li	      6.14139      6.03421      4.47743         0.016323     -0.014500      0.097373
Li	      6.18211      4.03550      6.63227         0.074275     -0.098051      0.050521
Li	      4.19110      7.89327      4.46207        -0.029774      0.097595      0.061406
Li	      2.26805      6.06801      4.31989        -0.131541      0.015938     -0.057287
Li	      2.11083      3.98265      6.45658        -0.030891      0.009018     -0.044893
Li	      4.22267      3.96700      8.65383         0.021685     -0.028715      0.009461
Ti	      2.06070      0.06715      2.10711        -0.089000      0.105402     -0.074116
Ti	      8.40922      4.03372      4.37565        -0.056957     -0.084276      0.014057
Ti	      2.00126      3.97607      2.41681        -0.030420      0.089160      0.372792
Mn	      4.23951      9.99171      6.53250         0.010612      0.044057     -0.008324
Cr	      6.31437      8.06384     10.89467         0.068991      0.020743     -0.038268
Cr	      6.28570      6.05825      8.66711         0.050003     -0.057368      0.028558
Cu	      4.14955      4.03267      4.46363        -0.088162     -0.168753     -0.052288
Cu	      4.16011      2.09148      6.55303         0.014052     -0.078919      0.046288
Ni	      4.25209      6.05792      6.48701        -0.087956      0.116752      0.153929
O	      2.10542      2.01005      2.14442        -0.006000     -0.068292      0.019548
O	      4.28081      4.07413      2.21738         0.028019     -0.021850     -0.129815
O	      4.30513      2.00587      4.26243         0.054382     -0.085504     -0.191738
O	      6.48658      4.05801      4.18986         0.234176      0.007156     -0.082903
O	      6.26133      1.91582      6.32873         0.090802      0.000150     -0.051402
O	      8.51364      4.08246      6.37265         0.005358     -0.065355     -0.080172
O	      1.99620      3.96609      4.20630        -0.105958     -0.050552     -0.275289
O	      4.17839      5.94820      4.48372         0.005780      0.089783     -0.063659
O	      4.21121      4.01450      6.46645        -0.059718      0.020542      0.166597
O	      6.31382      6.06064      6.70490        -0.029679     -0.042428     -0.028830
O	      6.40959      4.04018      8.66947         0.096698      0.062201      0.018935
O	      8.30294      5.92539      8.78600         0.005075     -0.105032      0.108655
O	      2.03923      6.01004      6.76358         0.031723      0.013695      0.093084
O	      4.21706      8.11160      6.53143         0.002104      0.070450      0.017558
O	      4.16465      6.03852      8.77917         0.072186     -0.012667     -0.050378
O	      6.33112      8.11398      8.85385        -0.020145     -0.016285     -0.023049
O	      6.18392      6.06870     10.74517        -0.022367      0.040514     -0.028122
O	      8.33737      8.15433     10.92144         0.007985      0.128110     -0.048986
