# total energy = -235.22951251 eV
 
CRYSTAL
PRIMVEC
-0.006022 6.212659 6.300451 
6.244468 -0.000552 6.294975 
4.182237 4.157432 -0.019555 
PRIMCOORD
36 1
Li	      8.31162      8.28800     12.51316        -0.025992     -0.004096     -0.045218
Li	      6.29406      8.33797     10.39116         0.005177     -0.015067     -0.024431
Li	      2.15182      2.06822      4.21412        -0.016857     -0.011903     -0.018118
Li	      8.26141      6.23192      6.24657        -0.010679      0.016140     -0.018107
Li	      6.29391      4.18471      6.20400         0.031670     -0.059466     -0.071249
Li	      8.31722      6.27420     10.46279        -0.016280      0.039327     -0.021832
Li	      6.29926      8.28658      6.31810         0.062711      0.026580      0.026754
Li	      8.22877      8.24172      8.47837        -0.009393      0.015788      0.078283
Li	      6.32766      6.32741      8.35948         0.068331      0.084518      0.000262
Ti	      6.23124      6.22138     12.48943        -0.084326      0.140785     -0.280165
Ti	      6.14994      2.14968      8.34363        -0.304677      0.252926     -0.200852
Ti	      4.34959      6.15274      6.35460         0.416954     -0.189373      0.155838
Mn	      6.28023     10.32710      8.40969         0.022726     -0.037839      0.000340
Cr	      4.11649      4.08178      4.20997         0.006124     -0.021455      0.120975
Cr	      4.17774      8.28120      4.20072        -0.031182      0.013270     -0.034794
Ni	      4.19848      2.06997      2.13456        -0.082531     -0.034180     -0.060037
Ni	      8.28676      4.16362      4.20960         0.050697      0.063008     -0.057293
Ni	      8.29631      4.12959      8.38726        -0.084655      0.021591     -0.056954
O	      1.98893      1.96350      2.10661        -0.083724     -0.014531      0.042659
O	      4.08212      4.17251      2.12133         0.172064      0.145062     -0.086602
O	      4.14643      2.09648      4.16708         0.018851      0.091501      0.128104
O	      6.18116      4.13210      4.08318        -0.069465      0.046388      0.091900
O	      6.26311      1.95085      6.43632        -0.064585     -0.121122      0.173294
O	      8.49569      4.14678      6.31153         0.092208     -0.040090     -0.034507
O	      2.08164      4.14712      4.13289        -0.028092     -0.012607      0.161295
O	      4.13908      6.23004      4.21906         0.003604     -0.036739      0.001177
O	      4.16777      4.27546      6.17710         0.037104      0.177568      0.077394
O	      6.14638      6.21019      6.30226        -0.330345     -0.028195      0.016411
O	      6.28876      4.02946      8.47459        -0.238067     -0.210947     -0.016658
O	      8.47157      6.21383      8.36629         0.206496      0.110039      0.020315
O	      1.97330      6.21027      6.42309        -0.042907     -0.025829     -0.065951
O	      4.17815      8.29412      6.23793        -0.001024     -0.007908     -0.064433
O	      4.22617      6.25882      8.27733         0.058758     -0.175309     -0.219578
O	      6.21688      8.41981      8.37911         0.173785     -0.089992     -0.006905
O	      6.24800      6.15699     10.61213         0.108960      0.080590      0.261577
O	      8.46093      8.37327     10.47170        -0.011439     -0.188432      0.027105
