# total energy = -245.13464452 eV
 
CRYSTAL
PRIMVEC
0.033387 6.400207 6.404737 
6.213884 0.035246 6.403110 
4.146274 4.269531 0.019504 
PRIMCOORD
36 1
Li	      0.16953      6.39583      6.38438        -0.008835      0.014455     -0.011541
Li	      2.12017      6.39609      8.41429         0.007261      0.007195     -0.001847
Li	      6.24982      2.20904      8.51497         0.065048      0.015414     -0.021068
Li	      2.07524      2.17061      4.26790        -0.016555     -0.011074     -0.016469
Li	      6.19643      4.27756      6.48066         0.012139     -0.041520      0.042920
Li	      2.09936      6.41283      4.37370         0.010538      0.060636      0.042026
Li	      2.07700      4.39112      6.42184         0.020656      0.011272      0.056147
Li	      8.31843      8.54695      8.55394        -0.034279     -0.055741      0.035031
Li	      6.20167      6.44850      8.52343        -0.032514      0.049762      0.006805
Ti	      4.21375      4.45012      4.32599         0.395423      0.177463     -0.035509
Ti	      8.16194      6.41211      6.52216        -0.387996     -0.080378      0.166232
Ti	      6.27100      4.41945     10.65298        -0.178141      0.282173     -0.066387
Mn	      6.26884      8.49920     10.69150         0.065316      0.005253     -0.097173
Mn	      4.20115      8.54284      8.49404        -0.093942     -0.059186      0.015316
Mn	      8.18470      4.30447      4.26735         0.021410     -0.042652     -0.016525
Cr	      8.29903      4.30046      8.53436        -0.063006     -0.187317     -0.128681
Co	      2.08097      8.41240      6.42359        -0.089533      0.028631     -0.126876
Co	      4.14602      6.38134      6.46402         0.023205     -0.062290      0.044440
O	      2.20101      2.25733      2.09409         0.054697      0.081996     -0.006887
O	      4.09964      4.16040      2.31735        -0.019479      0.045292      0.073875
O	      4.19277      2.21396      4.40505         0.054067      0.093582      0.069805
O	      6.07397      4.29287      4.28701        -0.384651      0.079315      0.047124
O	      6.16680      2.13964      6.22213         0.333848     -0.088824      0.081839
O	      8.27288      4.39151      6.49034        -0.002258      0.067739      0.028761
O	      2.06892      4.27361      4.17187        -0.049936      0.013289      0.046552
O	      4.17578      6.32363      4.29538        -0.032233     -0.207449     -0.021485
O	      4.12081      4.17033      6.29538        -0.025535     -0.062330     -0.098187
O	      6.30223      6.40233      6.42727         0.382019     -0.007934      0.027355
O	      6.29337      4.23637      8.71259         0.019961      0.030974      0.135277
O	      8.35418      6.35357      8.38845        -0.028441     -0.029165     -0.243767
O	      2.14336      6.41171      6.41939         0.070575      0.299336      0.024036
O	      4.20722      8.52229      6.23788        -0.243740     -0.098752     -0.037552
O	      4.16802      6.59909      8.52856        -0.013699      0.053361     -0.054518
O	      6.14830      8.54016      8.75548         0.050219      0.011425      0.047021
O	      6.24946      6.28912     10.66658         0.068507     -0.399126      0.015282
O	      8.35738      8.53698     10.64662         0.049886      0.005176     -0.021373
