# total energy = -245.58252388 eV
 
CRYSTAL
PRIMVEC
0.002141 6.345887 6.258372 
6.465224 -0.001034 6.260461 
4.337817 4.259128 -0.027024 
PRIMCOORD
36 1
Li	      0.09349      6.29167      6.27726         0.094585     -0.032020      0.009847
Li	      4.35064      2.30802      1.94187         0.089642      0.062500     -0.055149
Li	      6.50564      8.41047     10.44352        -0.029156     -0.017667     -0.023470
Li	      2.29089      4.20715      2.20439         0.040702     -0.001670     -0.040198
Li	      6.49104      4.21855      6.23359        -0.065776     -0.039711      0.048589
Li	      0.14609      4.19864      4.24046         0.005155      0.026271     -0.015384
Li	      2.06761      6.16970      4.31156        -0.114442     -0.013346     -0.041960
Li	      6.30342      8.55059      6.13956        -0.012909      0.038386      0.077816
Li	      4.26439      6.54493      6.09896        -0.002039     -0.025455      0.015776
Ti	      8.70439     10.50415     10.45229         0.359959     -0.131467     -0.145696
Ti	      8.67613      6.28587      6.24213         0.026140      0.084606      0.067655
Ti	      8.51394      8.48678      8.23399        -0.354655      0.060814     -0.189399
Mn	      6.48025      2.14928      8.36531         0.073020     -0.049538      0.029068
Mn	      4.31825      4.29895      4.19047         0.029044      0.017698     -0.015893
Mn	      6.42125      6.28202      8.29323         0.002035      0.071703      0.023821
Cr	      2.19554      2.18135      4.15144        -0.035442      0.079921     -0.089396
Fe	      2.38416      8.38287      6.30455        -0.031393     -0.024185      0.071379
Co	      2.11527      6.35094      8.27482         0.235205      0.098357     -0.063188
O	      2.22937      2.20669      2.05404        -0.025798      0.080876      0.103400
O	      4.39283      4.43172      2.05957         0.362056      0.065332     -0.079782
O	      4.28661      2.03783      4.28252        -0.046621     -0.055380      0.179591
O	      6.64208      4.38488      4.08361        -0.117595     -0.088109     -0.330820
O	      6.29655      2.13296      6.35069        -0.143528     -0.010313     -0.046227
O	      8.60994      4.30539      6.16239        -0.044453      0.038634     -0.120674
O	      2.19887      4.17554      4.17809         0.033657     -0.049557     -0.049075
O	      4.53514      6.41234      4.05382         0.025537      0.005703      0.017742
O	      4.31861      4.07981      6.36513        -0.008902     -0.070013      0.220963
O	      6.67419      6.32766      6.15634         0.096041     -0.046177     -0.031344
O	      6.21360      4.12159      8.37996        -0.046910     -0.025153     -0.026489
O	      8.56467      6.42951      8.24387         0.075388      0.016862     -0.115849
O	      2.19684      6.47207      6.23488        -0.182680     -0.137226      0.502395
O	      4.25127      8.49908      6.24777         0.112065      0.019586      0.010281
O	      4.28494      6.17551      8.41576        -0.310656     -0.006295      0.142883
O	      6.60524      8.45636      8.33231         0.339069     -0.142355     -0.007776
O	      6.24055      6.36039     10.41734        -0.416502     -0.009632     -0.003080
O	      8.53453      8.60470     10.44439        -0.009842      0.208021     -0.030356
