# total energy = -243.55581256 eV
 
CRYSTAL
PRIMVEC
-0.009746 6.511154 6.151971 
6.362603 -0.012321 6.154476 
4.244926 4.346325 -0.011421 
PRIMCOORD
36 1
Li	     10.45700      4.45710      6.12030        -0.018030      0.035725     -0.039106
Li	      8.40095      2.28172      6.11731         0.011508      0.092146     -0.054202
Li	      8.44185      4.44150      4.28212         0.025898      0.056367      0.016591
Li	      2.29578      2.18608      4.17044         0.071930      0.022788      0.046012
Li	      4.17423      4.22243      4.14188         0.008791     -0.027486      0.008950
Li	      4.36083      2.14539      6.05273        -0.036895      0.013857      0.020131
Li	      6.39559      4.22941      6.12117         0.004849      0.006945     -0.039221
Li	      2.14360      4.30321      6.11223         0.012072     -0.011380     -0.001603
Li	      8.46968      8.66423      8.19003        -0.012348     -0.028860      0.001064
Ti	      1.99392      0.20261      2.10433        -0.184124      0.158224      0.207272
Ti	      4.24753      6.29594      6.09819        -0.054687     -0.411150     -0.128774
Ti	      6.37488      6.48220      8.13080         0.112558     -0.103065     -0.025361
Mn	      6.37700      2.19916      4.17165         0.046670     -0.042742      0.029159
Mn	      4.16932      8.68882      4.20218        -0.033403      0.027163     -0.013691
Mn	      4.28049      8.67187      8.18190        -0.038952      0.045784     -0.020234
Cr	      2.07788      6.48651      4.14484        -0.072113      0.036906      0.022413
Fe	      8.45254      4.33855      8.11548         0.085254     -0.038564      0.101450
Cu	      6.33492      2.18941      8.06890         0.000072     -0.023937      0.010070
O	      2.19181      2.11072      2.06750         0.015150     -0.140988      0.013922
O	      4.35961      4.30796      2.00209         0.185697      0.050514      0.005779
O	      4.36105      2.17981      4.01819        -0.011767      0.026322      0.015742
O	      6.43688      4.38354      3.90596        -0.041402      0.013152     -0.367543
O	      6.34245      2.19536      6.06166         0.024035     -0.031470      0.243305
O	      8.48800      4.32918      6.27027         0.014210      0.038855     -0.121871
O	      2.12982      4.44146      3.97081        -0.008106      0.039409      0.001162
O	      4.11075      6.56577      4.17116         0.014198     -0.094131      0.111787
O	      4.25867      4.48064      6.12858         0.028695      0.473587     -0.016759
O	      6.24587      6.54622      6.23461        -0.108912     -0.075837      0.159874
O	      6.39007      4.53374      8.20882        -0.033962      0.186205     -0.004335
O	      8.32735      6.47886      8.25629        -0.156127     -0.065751      0.035283
O	      2.24057      6.42956      6.22406         0.152020      0.021810      0.034501
O	      4.25880      8.53430      6.23521        -0.001021     -0.070728      0.038399
O	      4.27859      6.47598      8.12920        -0.012088      0.003025     -0.119378
O	      6.36236      8.57983      8.27523        -0.006233     -0.109854     -0.097116
O	      6.40858      6.45505     10.20063         0.046497      0.022529     -0.074914
O	      8.38050      8.49094     10.27994        -0.029933     -0.095369      0.001240
