# total energy = -136.34037311 eV
 
CRYSTAL
PRIMVEC
2.086348 2.086265 0.000006 
-2.099982 2.099887 7.891309 
6.289459 -6.289195 -0.005184 
PRIMCOORD
24 1
Li	      1.03777      1.04828      0.99285         0.000683     -0.003565      0.001975
Li	      1.04936      1.03434      4.92772         0.004822     -0.003578      0.009611
Li	      3.12891     -1.04394      1.01168        -0.005314      0.004535     -0.018156
Li	      3.15767     -1.07324      4.90222         0.013947     -0.012730      0.015206
Li	      5.24542     -3.16060      0.98833        -0.001466      0.001043     -0.002131
Li	      5.20294     -3.11872      4.91763        -0.022981      0.023692     -0.006344
Mn	      7.32746     -3.15615      2.94773         0.009043     -0.008664     -0.036904
Mn	      1.01070      3.16029      6.91019        -0.005670      0.005455      0.059553
Mn	      3.15441      1.01624      6.90718         0.015896     -0.015805     -0.002758
Ni	      3.16288      1.00809      2.96479        -0.043539      0.043881      0.007524
Ni	      5.18191     -1.01097      2.93997         0.036166     -0.036403     -0.008366
Ni	      5.21724     -1.04606      6.90659         0.015357     -0.016280     -0.010418
O	      0.96288      1.12219      2.97067        -0.118387      0.115286      0.004820
O	      1.00586      1.07841      6.90230        -0.016068      0.017688      0.001750
O	      3.11938     -1.03466      2.94345         0.016226     -0.019068      0.000791
O	      3.11828     -1.03378      6.90972        -0.108136      0.108600      0.003227
O	      5.33719     -3.25226      2.95900         0.105742     -0.104701     -0.004359
O	      5.27876     -3.19381      6.89091         0.086297     -0.086106     -0.024106
O	      7.33328     -3.16168      1.06116         0.004857     -0.006438      0.147931
O	      1.04299      3.12751      4.93288        -0.002647      0.005551     -0.038472
O	      3.12508      1.04625      0.89569        -0.002933      0.002185     -0.156728
O	      3.12111      1.04911      5.01592        -0.000331      0.002426      0.134285
O	      5.23317     -1.06238      0.91155         0.011394     -0.011906     -0.098269
O	      5.24320     -1.07259      4.92710         0.007043     -0.005096      0.020336
