# total energy = -247.46255699 eV
 
CRYSTAL
PRIMVEC
0.008394 6.415896 6.346485 
6.281062 0.021996 6.332691 
4.198339 4.279085 0.003816 
PRIMCOORD
36 1
Li	      4.19144      4.25957      0.02636         0.000486     -0.015621     -0.022019
Li	      6.27281     10.63610      8.43329        -0.002402     -0.051464      0.076571
Li	      6.29913      2.26135      8.41323         0.025628      0.028795     -0.004092
Li	      8.32957      4.27838      8.44423        -0.009850     -0.002400      0.027513
Li	      2.08512      2.18627      4.20117        -0.057830     -0.032565     -0.019705
Li	      6.29315      4.26911      6.46683        -0.024355     -0.003638      0.053095
Li	      6.30189      8.55298      6.40897        -0.026842     -0.027333      0.067686
Li	      4.24729      4.26301      8.42172         0.026182      0.034496     -0.056182
Li	      6.27496      6.41250      8.47055        -0.043238     -0.024426     -0.004686
Ti	      2.02521      2.04344      0.10886        -0.148515     -0.061724      0.348018
Ti	      4.22714      4.34226      4.14668         0.095115      0.395513     -0.197348
Ti	      8.24198      6.41155      6.49314        -0.388492      0.161122      0.143763
Mn	      4.14362      0.04426      4.18830         0.037053      0.014521     -0.175592
Mn	      6.33314      8.54229     10.49379         0.142504     -0.064259      0.001013
Mn	      4.27533      6.34156      6.44391         0.125052     -0.082120      0.102230
Cr	      4.21939      8.59416      8.41968         0.024006     -0.054978      0.181460
Fe	      6.40362      4.32589     10.41585        -0.068969      0.119003      0.183444
Fe	      8.37386      6.45380     10.49194         0.052637     -0.383812     -0.181426
O	      2.15983      2.18899      1.96315        -0.072973      0.083365     -0.376718
O	      4.17010      4.19522      2.26917        -0.061015     -0.008441      0.061373
O	      4.13731      2.24144      4.19108        -0.063674      0.015655      0.090438
O	      6.15862      4.30236      4.21162        -0.149414      0.054531     -0.003892
O	      6.37845      2.15713      6.29365         0.146201     -0.031499      0.109891
O	      8.38289      4.40406      6.21840         0.051617      0.053303     -0.007446
O	      2.11794      4.30534      4.25740         0.280143     -0.185384      0.072816
O	      4.18829      6.32182      4.25822         0.401097     -0.045689      0.112419
O	      4.19880      4.12593      6.22773        -0.051917     -0.255947     -0.030186
O	      6.39516      6.39558      6.37634         0.490278      0.036234     -0.002455
O	      6.28069      4.26334      8.57000         0.029499     -0.028039     -0.257403
O	      8.42771      6.43405      8.30367        -0.084036      0.009988      0.005181
O	      2.12762      6.58293      6.37319        -0.107991      0.161751     -0.386117
O	      4.10635      8.56999      6.39139        -0.079478      0.036263     -0.050826
O	      4.17099      6.55162      8.52666         0.041543     -0.004947      0.111796
O	      6.18431      8.58471      8.46977         0.077047     -0.041931     -0.173549
O	      6.32488      6.34398     10.56614        -0.588472      0.168772      0.003192
O	      8.51364      8.60108     10.66861        -0.016625      0.032904      0.197743
