# total energy = -248.63845342 eV
 
CRYSTAL
PRIMVEC
0.019138 6.278353 6.467379 
6.293193 0.008625 6.477362 
4.216967 4.213490 -0.015609 
PRIMCOORD
36 1
Li	      6.28692      0.04811      6.47590         0.011817     -0.010905      0.017612
Li	      6.31087      8.27889     10.81784        -0.035210     -0.002353      0.048939
Li	     10.45252      6.29619      8.59589        -0.021326     -0.012666     -0.015196
Li	      8.40749      4.31176      8.60770         0.018004      0.050590     -0.003621
Li	      4.25293      4.21012      4.25936         0.031487     -0.035441     -0.046382
Li	      4.28209      2.06275      6.51353         0.071317      0.014545      0.001117
Li	      6.30843      4.25634     10.65173        -0.023776     -0.011302     -0.117866
Li	      6.34265      8.38416      6.46530         0.016692      0.027958     -0.009066
Li	      6.39261      6.20880      8.76518        -0.016386     -0.043820      0.067599
Ti	      8.33101      2.18390      6.39788        -0.401242      0.097630     -0.282143
Ti	      2.18623      2.23804      4.28623         0.367058      0.074857      0.132615
Ti	      4.20167      6.26542      6.30655         0.080499     -0.215542     -0.210877
Mn	      6.27655      4.20226      2.19220        -0.208478     -0.078204      0.012177
Mn	      4.31601      8.40347      8.62538         0.058445      0.050405      0.097785
Mn	      6.29965      4.19485      6.50897        -0.026735     -0.017815      0.069702
Mn	      8.41962      8.35771      8.61589         0.058368     -0.089020      0.027840
Cr	      8.32923      6.22302     10.74259        -0.061819      0.055906     -0.087286
Co	      4.32565      6.27983     10.82411         0.072887      0.019715      0.090673
O	      2.08584      2.02277      2.20812        -0.035631     -0.052253     -0.002524
O	      4.39666      4.18943      2.16078         0.061015      0.069887     -0.008092
O	      4.08654      2.11462      4.36050        -0.265904      0.081887     -0.031316
O	      6.40816      4.42054      4.32833        -0.002237      0.042101      0.020801
O	      6.45451      2.06977      6.48350         0.348070     -0.038057      0.017740
O	      8.47560      4.06900      6.50009         0.039935     -0.114283     -0.014629
O	      2.09563      4.14954      4.22543        -0.000500     -0.153018     -0.043721
O	      4.20362      6.29952      4.39918         0.007297     -0.004138      0.217306
O	      4.15540      4.35734      6.44432        -0.027940      0.200106     -0.014190
O	      6.17135      6.40044      6.25364        -0.166416      0.066919     -0.132110
O	      6.12266      4.21517      8.60500        -0.018411     -0.010282      0.055794
O	      8.39092      6.37532      8.75339        -0.042804      0.011390      0.021941
O	      2.18261      6.33750      6.34488         0.075069     -0.036149     -0.085855
O	      4.07531      8.21628      6.53102        -0.060855     -0.039974     -0.036132
O	      4.09481      6.21551      8.55758         0.069127      0.025273     -0.035920
O	      6.42429      8.49296      8.63357         0.023868      0.092659      0.002339
O	      6.34620      6.26650     10.79895         0.013659     -0.039075     -0.011371
O	      8.40623      8.30969     10.92377        -0.008944      0.022470      0.286315
