# total energy = -245.44482161 eV
 
CRYSTAL
PRIMVEC
0.041134 6.450461 6.311475 
6.282086 0.048335 6.305728 
4.212692 4.321507 0.006874 
PRIMCOORD
36 1
Li	      4.28203     10.70312      6.37723        -0.008695     -0.052013      0.082273
Li	      6.27366      4.30676      2.13012         0.014056      0.024010      0.000482
Li	      6.29949      8.58435     10.41616        -0.001033     -0.025731     -0.011628
Li	      4.23812      6.41217      2.18815         0.013023     -0.019754      0.060416
Li	      2.19203      4.31781      2.23549         0.029102     -0.011308     -0.018580
Li	      2.15358      2.27488      4.08663        -0.014765      0.027255     -0.072186
Li	      6.34257      4.37491     10.45243         0.000160     -0.005504     -0.068295
Li	      2.11137      4.35637      6.28875         0.029226      0.053832     -0.030450
Li	      8.33877      8.63389      8.51017        -0.035965     -0.010728      0.027329
Ti	      2.08425      2.13613      0.07721         0.011598     -0.044899      0.199437
Ti	      6.28217      4.31483      6.37551        -0.040354     -0.067800      0.105776
Ti	      4.25220      6.58539      6.23922        -0.174878      0.162254     -0.411860
Mn	      8.43101      6.47645      6.35172         0.149274     -0.040101     -0.140854
Mn	      8.33556      6.49556     10.43627         0.138947      0.011692      0.185664
Mn	      4.22115      4.28080      4.11235         0.130598      0.094798     -0.064613
Mn	      6.28731      6.54179      8.41844         0.247809     -0.000975      0.297759
Cr	      4.21023      6.44298     10.44710        -0.147734     -0.081700      0.067567
Cu	      4.24378      2.24218      2.13369        -0.132396      0.132280     -0.026230
O	      2.22450      2.23553      1.95251        -0.067817     -0.002036     -0.241327
O	      4.27334      4.34518      2.21601        -0.015233      0.213167      0.047109
O	      4.19040      2.02352      4.28275         0.010999     -0.052860      0.087816
O	      6.27945      4.32475      4.33923         0.038791     -0.041202      0.032794
O	      6.39531      2.34217      6.42512         0.071859      0.156397     -0.004427
O	      8.32489      4.24500      6.20143        -0.115668      0.006178     -0.024558
O	      2.30301      4.32545      4.23095         0.005666     -0.008040      0.032290
O	      4.27379      6.52768      4.36695         0.000570      0.002026      0.293129
O	      4.31970      4.42885      6.19172         0.102549     -0.028103      0.010315
O	      6.21743      6.38213      6.37936        -0.193250     -0.182791     -0.913427
O	      6.32953      4.51015      8.25760         0.018776      0.002508     -0.196498
O	      8.30012      6.58204      8.37554         0.650614      0.018555     -0.139821
O	      2.23647      6.60626      6.34385         0.081824      0.145064      0.017667
O	      4.16483      8.49954      6.24998        -0.025252     -0.190388     -0.026240
O	      4.23962      6.40024      8.38322        -0.726523     -0.286860     -0.084479
O	      6.21889      8.44960      8.37241         0.130703      0.076553     -0.061180
O	      6.20976      6.44843     10.42809        -0.134522     -0.037680      0.936940
O	      8.39038      8.72097     10.65778        -0.042059      0.063902      0.051892
