# total energy = -246.62140773 eV
 
CRYSTAL
PRIMVEC
0.020185 6.233297 6.397263 
6.478484 0.013218 6.403934 
4.314468 4.155827 0.013278 
PRIMCOORD
36 1
Li	      2.10882      2.06346      0.10198         0.015895      0.013706     -0.049898
Li	      6.40040      4.18831      2.12135         0.003889     -0.021197      0.012218
Li	      6.60951      2.11297      8.37279         0.025267     -0.005736     -0.052022
Li	      2.12700      2.21155      4.24864        -0.015096     -0.019727      0.015085
Li	      4.43749      2.15536      6.44715        -0.029386     -0.001769      0.011964
Li	      6.37180      4.06462      6.46000         0.019762      0.007652     -0.009907
Li	      0.13267      4.12779      4.28244        -0.019469      0.021897     -0.032485
Li	      2.16572      4.16008      6.31804         0.007160      0.004414      0.006357
Li	      4.35504      4.16298      8.46955        -0.001849     -0.047641      0.023215
Ti	      8.53143      4.09319      4.45356        -0.060526     -0.165181      0.371831
Ti	      4.21690      6.22524      6.38158        -0.109839     -0.126725     -0.307300
Ti	      6.49491      6.13751      8.39473         0.162067     -0.146321     -0.243722
Mn	      6.46480      2.04732      4.32202         0.005815      0.029960      0.039774
Mn	      8.69195      6.32061     10.66934         0.064801      0.002241     -0.040582
Mn	      2.15349      4.12239      2.12495        -0.025969      0.085004     -0.013720
Mn	      4.33812      4.15873      4.30021        -0.029717      0.005618     -0.027718
Cr	      4.29974      2.08060      2.13604        -0.059200      0.089415     -0.009585
Ni	      0.08860      6.20848      6.41923         0.012764     -0.043724     -0.024628
O	      2.26176      2.23271      2.11713        -0.007217     -0.009442      0.029397
O	      4.32826      4.12312      2.09265        -0.024407     -0.097568      0.091357
O	      4.24656      1.93990      4.18301        -0.006090     -0.100702     -0.003371
O	      6.59169      4.03586      4.27433         0.213547      0.026334      0.032395
O	      6.48404      2.01853      6.24756        -0.007591      0.116355      0.005019
O	      8.68896      4.15909      6.31486        -0.060197      0.026732     -0.362265
O	      2.20002      4.19999      4.16122        -0.040155     -0.006094      0.043107
O	      4.37408      6.31347      4.49014         0.059050     -0.022838      0.224939
O	      4.32572      4.31466      6.44982        -0.066013      0.159820      0.030840
O	      6.33846      6.27561      6.56847        -0.018282     -0.043965      0.268958
O	      6.50192      4.24169      8.50247         0.000127      0.284156      0.034668
O	      8.46153      6.13203      8.49036        -0.144661     -0.027338     -0.039168
O	      2.29018      6.26143      6.45455         0.236415     -0.033090      0.042880
O	      4.38430      8.27071      6.53994        -0.015161     -0.171712      0.013243
O	      4.41398      6.28572      8.54291         0.037400     -0.031619     -0.028968
O	      6.37286      8.17917      8.73026        -0.005863     -0.012052     -0.007209
O	      6.38285      6.29315     10.64976        -0.085573     -0.002719     -0.079943
O	      8.69589      8.45474     10.59588        -0.031700      0.263853      0.035245
