# total energy = -249.51648411 eV
 
CRYSTAL
PRIMVEC
0.002551 6.251587 6.385709 
6.283313 0.032408 6.356038 
4.218575 4.177521 -0.008031 
PRIMCOORD
36 1
Li	      6.37988      0.19115      6.33060         0.037987      0.060379     -0.012125
Li	      2.09723      6.27335      8.38531        -0.014424      0.059223     -0.021145
Li	      6.33731      2.08037      4.33997         0.032580      0.011935      0.082063
Li	      6.29055      2.07996      8.38380         0.093009     -0.004717      0.002853
Li	      4.30493      2.11137      6.38537         0.008082     -0.019172     -0.037685
Li	     10.46680      8.34675     10.60271        -0.041370     -0.065089     -0.034773
Li	      2.08586      6.29629      4.35657        -0.000020      0.054173      0.015258
Li	      4.12865      6.27454      6.31425        -0.055525      0.061098     -0.106271
Li	      6.29699      6.29121      8.48094         0.000024     -0.057708      0.008167
Ti	      4.28045      8.31432      8.41920        -0.105200      0.046277     -0.184282
Ti	      8.53955     10.39568     10.69111         0.511232     -0.219523      0.021634
Ti	      8.31641      4.31271      8.44426        -0.191916     -0.140288      0.157809
Ti	      8.43567      8.28200      8.44588         0.104217     -0.048734      0.413720
Mn	      2.03836      4.25027      6.33104        -0.078281     -0.045567     -0.217011
V	      6.24912      6.25144      4.26722        -0.016493      0.074865      0.146834
V	      4.26189      4.19558      4.25436         0.041972     -0.022943     -0.042688
Co	      8.31892      8.28299     12.70658         0.100184      0.160055      0.136874
Co	      6.31676      4.16642      6.39274        -0.001742      0.094745     -0.094204
O	      2.19608      2.19680      2.20343         0.217835      0.082980      0.164251
O	      4.11282      4.06924      2.19442        -0.103195     -0.068240      0.042886
O	      4.13447      2.06392      4.17507         0.035865     -0.086235     -0.114529
O	      6.30390      4.18795      4.26155         0.135153     -0.067252     -0.194456
O	      6.33285      2.17760      6.37668         0.340704     -0.158440      0.004256
O	      8.44222      4.19687      6.37294        -0.194135     -0.088783      0.105720
O	      2.16584      4.18111      4.10418        -0.043194      0.146282     -0.216297
O	      4.29664      6.15839      4.20759        -0.111721      0.128702     -0.020604
O	      4.19851      4.19276      6.48858         0.162622      0.044155     -0.059807
O	      6.32502      6.26275      6.21733         0.032981     -0.120981      0.076465
O	      6.30800      4.21875      8.49926         0.014571     -0.016757      0.263337
O	      8.37831      6.28897      8.47509         0.039386     -0.001815     -0.039056
O	      2.09670      6.29361      6.35110        -0.052269      0.229889      0.078331
O	      4.13730      8.30766      6.55877        -0.224474     -0.092719      0.133194
O	      4.18189      6.29512      8.65101         0.021920     -0.000924      0.054378
O	      6.25857      8.33615      8.51530        -0.078088     -0.006473     -0.079667
O	      6.12283      6.26171     10.67230        -0.630033     -0.035166     -0.001935
O	      8.40250      8.44921     10.45215         0.011756      0.112767     -0.431498
