# total energy = -254.41000604 eV
 
CRYSTAL
PRIMVEC
-0.017806 6.317684 6.309553 
6.354227 -0.048964 6.340798 
4.223843 4.220482 -0.020483 
PRIMCOORD
36 1
Li	      2.14803      8.35687      6.26446        -0.026293     -0.053117     -0.050549
Li	      4.24110      8.33129      8.42696         0.053589     -0.046641      0.042848
Li	      4.24759      6.32750     10.48501         0.008403      0.030469     -0.010037
Li	      2.14905      2.21308      4.22821         0.006509      0.045747     -0.007608
Li	      4.10628      4.18040      4.27069        -0.024899      0.007271      0.031446
Li	      2.14662      6.24793      4.29840         0.002607     -0.030385      0.041534
Li	      2.08427      4.15774      6.22151         0.004593      0.002567     -0.034720
Li	      4.20239      6.40721      6.24079        -0.005092      0.043145     -0.064281
Li	      6.26613      6.38925      8.41622        -0.001090      0.033851     -0.017504
Ti	      4.29822     10.32369      6.19962         0.369222     -0.091629     -0.159765
Ti	      4.23257      6.35547      2.27842         0.007856     -0.063228      0.596443
Ti	      6.32547      4.28010      6.21938        -0.078572      0.134901     -0.290224
Ti	      8.45330      8.47718      8.52324        -0.170766      0.132403      0.209012
Mn	      2.16319      0.04389      2.11771         0.005870      0.023060      0.008520
V	      6.31023      8.35294     10.52480         0.006916      0.010660     -0.005203
V	      2.09925      4.21287      2.19861         0.048402      0.087916      0.069922
Cr	      4.21901      2.06986      6.29401         0.049487      0.022616     -0.011127
Co	      6.30936      4.21433     10.54008        -0.051977     -0.040512     -0.043472
O	      2.01711      2.19552      2.09439        -0.117354     -0.052864     -0.016871
O	      4.16542      4.32970      1.94900         0.004036      0.020609     -0.018098
O	      4.35159      2.07477      4.31208        -0.080595      0.025082      0.006233
O	      6.36096      4.09027      4.30842         0.028329      0.099346      0.339493
O	      6.26325      2.09222      6.34722        -0.043917      0.044708      0.128913
O	      8.42508      4.24407      6.39665        -0.036631      0.003224     -0.049002
O	      2.11958      4.21999      4.11211        -0.032372      0.006797     -0.005819
O	      4.20047      6.28252      4.11389         0.039969     -0.001109     -0.562413
O	      4.33879      4.09060      6.41358         0.136959      0.015643      0.056523
O	      6.41889      6.16715      6.26248         0.024859     -0.180327      0.013852
O	      6.33723      4.11879      8.29810        -0.104649     -0.021274     -0.109574
O	      8.50438      6.29024      8.34274         0.113644      0.029605     -0.097782
O	      1.92997      6.30778      6.29583        -0.376246     -0.076385      0.001066
O	      4.17749      8.49964      6.34577         0.000847      0.149700      0.052203
O	      4.26957      6.14630      8.41563         0.037875     -0.183253     -0.000848
O	      6.46441      8.38036      8.45106         0.207352     -0.040654     -0.053575
O	      6.30139      6.36210     10.63664        -0.008754     -0.096329      0.284507
O	      8.35727      8.37459     10.46213         0.001884      0.008388     -0.274042
