# total energy = -251.08673692 eV
 
CRYSTAL
PRIMVEC
0.045197 6.293294 6.375053 
6.223016 0.044006 6.375379 
4.181407 4.227941 -0.002778 
PRIMCOORD
36 1
Li	     10.34379      4.27243      6.41736        -0.034720      0.014079      0.046805
Li	      4.25740      6.29197     10.61278         0.063803     -0.058921      0.002002
Li	      6.20802      2.17140      8.48873        -0.020472      0.051562     -0.033925
Li	      8.29650      4.28811      8.43630        -0.057594     -0.020369     -0.065133
Li	      4.14501      4.22318      4.25435        -0.066246     -0.044288     -0.016195
Li	      6.23600      4.27484     10.53222        -0.046078      0.067355     -0.101100
Li	      4.19238      6.29625      6.42435         0.024797      0.015198      0.087431
Li	      4.26025      4.28114      8.45828         0.037741      0.060290      0.005387
Li	      6.22244      6.23438      8.51411        -0.067739     -0.051430      0.054236
Ti	      2.07479      0.03560      2.14607        -0.022307      0.020060      0.047565
Ti	      6.15012      2.11045      4.27356        -0.022816     -0.140733      0.018687
Ti	      6.11201      6.31146      4.24970        -0.244041      0.098457      0.005951
Ti	      8.37827      6.33284     10.48769        -0.064440      0.054503     -0.776750
Mn	      4.22198      8.43119      8.46385         0.008381      0.033819     -0.015537
V	      2.21709      8.41603      6.37337         0.038719     -0.046951      0.003143
V	      6.20551      4.26015      6.48257         0.019757      0.020090      0.008893
Cr	      2.15489      4.21168      6.38613        -0.093653      0.016295      0.034728
Cu	      8.36827      6.31533      6.50726        -0.036421     -0.034935      0.201681
O	      2.04327      2.11153      2.19327        -0.002020      0.007284      0.053073
O	      4.34316      4.25259      2.12923         0.225303      0.053096     -0.017004
O	      4.23358      2.11344      4.22215         0.176230      0.028062      0.049491
O	      6.24003      4.25985      4.26815        -0.029025     -0.008101     -0.017390
O	      6.36734      2.15790      6.25258        -0.052002     -0.051128     -0.106056
O	      8.23083      4.12804      6.33598         0.044307      0.166666     -0.048210
O	      2.10423      4.22368      4.36196         0.004046     -0.024164      0.034798
O	      4.21921      6.33268      4.23082         0.119963     -0.011126      0.008128
O	      4.16800      4.25243      6.35367        -0.027803     -0.124250     -0.009590
O	      6.19915      6.42182      6.23419         0.062930     -0.009611     -0.105135
O	      6.23994      4.26784      8.36671        -0.008952     -0.011728     -0.012010
O	      8.37276      6.29460      8.69135         0.013605     -0.036441      0.594894
O	      2.14371      6.29548      6.39562         0.042432     -0.049615      0.023311
O	      4.22517      8.44541      6.32827         0.081829      0.016542      0.024909
O	      4.03865      6.32742      8.54987        -0.134507     -0.028230      0.031746
O	      6.36949      8.47833      8.49780         0.036618      0.011065      0.003603
O	      6.38594      6.48323     10.62077         0.053495      0.093375     -0.003985
O	      8.29788      8.31576     10.67162        -0.023119     -0.075777     -0.012441
