# total energy = -254.43579020 eV
 
CRYSTAL
PRIMVEC
0.035627 6.278452 6.339583 
6.393054 0.016233 6.359024 
4.276049 4.212967 -0.003108 
PRIMCOORD
36 1
Li	      8.43440      2.14432      6.39164        -0.134146      0.020802     -0.001052
Li	      2.27556      6.27772      8.49462        -0.003700      0.009909     -0.034556
Li	      4.28154      6.25664     10.47049         0.030020     -0.004559      0.056585
Li	      6.49305      8.40794     10.59189         0.019708     -0.049606      0.158263
Li	      6.37967      2.13471      8.38983         0.009120      0.029173     -0.147929
Li	      8.61531      6.28100      6.42391         0.158064     -0.068598      0.000311
Li	      8.49228      6.39099     10.53044        -0.030998      0.081591      0.060249
Li	      8.49399      8.37530      8.54300        -0.074194     -0.100384      0.040049
Li	      6.38612      6.35094      8.51744         0.013050      0.026526      0.000371
Ti	      8.56496      4.34462      8.47038         0.235284      0.494919     -0.920263
Ti	      4.30229      4.23828      4.19595         0.741126     -0.054777     -0.188886
Ti	      6.25595      4.28297     10.48691        -0.814518      0.102879      0.282285
Ti	      6.49895      8.33113      6.38887        -0.285333      0.202403      0.620538
Mn	      4.20325      6.26797      6.46309        -0.089341      0.161924     -0.083276
V	      6.38979      0.12304      6.35117        -0.059750     -0.701476      0.362750
V	      2.12971      2.08053      4.20090        -0.016155      0.049636      0.085035
Cr	      4.32805      8.36184      8.45661         0.000103      0.096440     -0.221623
Fe	      6.45156      4.13549      6.35470         0.242919     -0.309617      0.423948
O	      2.28780      2.21337      2.12620         0.045781      0.048362      0.007099
O	      4.27396      4.18370      2.14066        -0.104218      0.094594      0.350001
O	      4.24555      2.26131      4.10593         0.039804      0.173866      0.008950
O	      6.29855      4.20580      4.32204        -0.589003      0.014920     -0.562667
O	      6.44070      2.04978      6.34205        -0.063623      0.621142     -0.001002
O	      8.62479      4.22518      6.48543        -0.441332      0.096305      0.289426
O	      2.14804      4.20361      4.23240         0.112897     -0.049788     -0.049874
O	      4.27913      6.28436      4.24140         0.062029     -0.145318     -0.122933
O	      4.20881      4.12420      6.25871        -0.470800     -0.038503     -0.202506
O	      6.40475      6.36442      6.32224         0.059868      0.324823     -0.052675
O	      6.50936      4.16718      8.54594         0.128294      0.168365      0.332487
O	      8.56073      6.18134      8.49721         0.012920     -0.507593      0.067365
O	      2.05644      6.10806      6.31267         0.392962     -0.158368     -0.057924
O	      4.38241      8.46134      6.31013         0.190547     -0.469633     -0.167446
O	      4.27652      6.40815      8.50016         0.014537     -0.022467      0.116553
O	      6.38566      8.37127      8.29441         0.009047      0.017411     -0.232324
O	      6.40912      6.15330     10.62467         0.019521     -0.202016     -0.069726
O	      8.71709      8.39363     10.55621         0.639510      0.046713     -0.145601
