# total energy = -90.63603879 eV
 
CRYSTAL
PRIMVEC
-0.000006 0.000043 3.937132 
4.209568 0.000294 -0.000003 
0.000585 8.339374 0.000152 
PRIMCOORD
16 1
Li	      1.05524      1.00670      0.98336        -0.000803      0.068154     -0.000007
Li	      1.05617      5.24458      0.98329        -0.004023     -0.081651     -0.001273
Li	      3.15959      3.16099      0.98308        -0.001218     -0.066646      0.000736
Li	      3.16124      7.26349      0.98370        -0.001762      0.079265     -0.001849
Mn	      1.05515      3.16380      2.95174         0.000118     -0.174467     -0.000651
Mn	      3.16000      1.00452      2.95183        -0.000115      0.174194     -0.000169
Ni	      1.05605      7.25579      2.95231         0.001254      0.070903     -0.000214
Ni	      3.16062      5.25189      2.95171        -0.000232     -0.071186      0.001422
O	      1.05519      1.14368      2.95183         0.000740      0.044875      0.000853
O	      1.05574      5.10620      2.95171        -0.000232     -0.010884      0.001793
O	      3.15985      3.02445      2.95166         0.001022     -0.042240      0.000753
O	      3.16095      7.40170      2.95214         0.000894      0.009326      0.000236
O	      1.05511      3.12543      0.98310        -0.000514      0.029060     -0.001251
O	      1.05630      7.27093      0.98373         0.004652      0.004284     -0.000779
O	      3.16041      5.23684      0.98316        -0.003406     -0.003939      0.001388
O	      3.16008      1.04268      0.98325         0.003625     -0.029049     -0.000988
