# total energy = -250.83654818 eV
 
CRYSTAL
PRIMVEC
0.018324 6.282074 6.364211 
6.255942 0.024824 6.357863 
4.188200 4.201405 -0.001057 
PRIMCOORD
36 1
Li	      4.22385      4.21309      0.10629        -0.036823      0.020667     -0.009160
Li	      4.15674      2.15251      2.10703        -0.012265     -0.018982      0.004724
Li	      4.15281      6.23169      2.31445         0.001679      0.024627     -0.057415
Li	      4.18235      4.38478      4.15526        -0.010358     -0.023126     -0.040535
Li	      8.36242      6.33812      6.45390         0.019002     -0.011034      0.018459
Li	      4.24240      8.21751      4.23203         0.008665      0.060698     -0.011401
Li	      2.29362      6.29016      4.18312         0.012250     -0.017851     -0.033133
Li	      4.17283      6.29423      6.18942         0.006397     -0.010930     -0.014267
Li	      6.31934      6.29419      8.49372        -0.016984     -0.015876      0.020639
Ti	      2.24742      8.35280      6.34363         0.103344      0.046964      0.078174
Ti	      6.10547      1.97556      4.23838        -0.279018     -0.255239      0.087508
Ti	      6.19754      4.30899      6.41679        -0.006660      0.050692      0.279433
Ti	      2.03805      4.18042      6.27907        -0.036885     -0.018426     -0.332838
Mn	      2.20362      4.30690      2.21450        -0.037097      0.017005      0.031364
V	      8.39997     10.45415     10.62677        -0.046246      0.024942     -0.001655
V	      8.38414      8.35043      8.51750         0.048042      0.024825      0.000259
Cr	      6.20796      4.22341      2.11413         0.032990      0.015211      0.080218
Ni	      6.20868      6.31821      4.21483         0.206968     -0.024883     -0.078389
O	      2.11066      2.04159      1.96720        -0.000869     -0.058512     -0.180683
O	      4.24816      4.20454      2.09867         0.089756     -0.014057      0.003597
O	      4.20837      2.05578      4.24362         0.319191      0.018432     -0.018257
O	      6.26098      4.16564      4.22380        -0.073776     -0.136489      0.034179
O	      6.34974      2.25637      6.16379         0.005306      0.003139     -0.098997
O	      8.25714      4.13069      6.35701        -0.054979     -0.037148      0.043537
O	      2.11402      4.18462      4.41738         0.018069      0.131914      0.307419
O	      4.25959      6.31169      4.22696        -0.138637      0.012879      0.030308
O	      4.17179      4.20741      6.46438         0.073940      0.016798     -0.010087
O	      6.26932      6.29592      6.32260         0.004882     -0.046468      0.103401
O	      6.26734      4.24818      8.30456        -0.034530     -0.007914     -0.293195
O	      8.36703      6.40910      8.46455        -0.009386     -0.002452      0.037804
O	      2.10219      6.27852      6.45448         0.000106      0.034742     -0.013195
O	      4.19058      8.39609      6.33732        -0.082255     -0.010952     -0.007096
O	      4.07928      6.18618      8.56711        -0.050122      0.023339     -0.071742
O	      6.26974      8.44456      8.50592        -0.030443      0.020251      0.011638
O	      6.27033      6.42245     10.59448         0.056265      0.288617     -0.000101
O	      8.30143      8.37132     10.62213        -0.049518     -0.125402      0.099483
