# total energy = -257.68298962 eV
 
CRYSTAL
PRIMVEC
0.019344 6.393789 6.328550 
6.343044 -0.010957 6.358867 
4.209998 4.264101 0.011552 
PRIMCOORD
36 1
Li	      4.17600      4.24035      0.04829        -0.032222     -0.016344      0.052732
Li	      2.15803      6.34128      8.39953         0.008768     -0.012047     -0.019721
Li	      4.26291      2.12930      2.17253         0.009881      0.019099      0.024391
Li	      4.23000      0.08541      4.25820         0.016047     -0.007910     -0.029073
Li	      6.19545      2.18771      4.23670         0.019738      0.044300     -0.048725
Li	      8.49183      4.24305      8.38527         0.000477     -0.012160     -0.024416
Li	      4.25321      2.06782      6.27404        -0.000847     -0.014327     -0.020866
Li	      2.10923      4.35455      6.37435         0.024299      0.139893      0.052986
Li	      4.19641      6.37061      6.42696        -0.038694     -0.026961      0.046517
Ti	      2.13660      8.49411      6.36071         0.048783     -0.186292     -0.025041
Ti	      4.21504      6.28292      2.04570         0.019121     -0.359185      0.027876
Ti	      4.24997      8.58771      4.33344        -0.004410      0.044962      0.192712
Ti	      6.26596      6.52893      8.38565        -0.175610      0.391815     -0.091827
Mn	      2.21797      2.09025      4.21399        -0.024420      0.004926      0.065562
V	      2.07162      6.36040      4.26391         0.033628      0.071846      0.009170
V	      4.22499      4.27168      8.42761        -0.048714     -0.038944      0.008883
Cr	      4.23800      4.19660      4.29390        -0.060423      0.061369     -0.113021
Cr	      6.36871      4.23606      6.33831         0.011193      0.006425     -0.004318
O	      2.01490      2.14079      2.04075        -0.102906      0.000489     -0.091405
O	      4.19842      4.40669      2.22966        -0.019538      0.370831      0.013578
O	      4.25251      2.25608      4.22922         0.079584      0.021329      0.022045
O	      6.22973      4.24181      4.34873         0.022470     -0.052548      0.025604
O	      6.37775      2.17646      6.42762        -0.015321      0.032180      0.047075
O	      8.37822      4.08731      6.33497        -0.028564     -0.083044     -0.016109
O	      2.10193      4.26930      4.28065        -0.037295     -0.075546      0.054643
O	      4.20603      6.46556      4.14076         0.021099      0.012619     -0.097370
O	      4.34424      4.28348      6.29646         0.033009      0.019975     -0.086801
O	      6.37679      6.24867      6.47915         0.029049     -0.008182      0.232650
O	      6.36283      4.22024      8.46712         0.047575     -0.002441     -0.017418
O	      8.46144      6.38719      8.47693        -0.002589     -0.038759     -0.024563
O	      2.09808      6.54701      6.34560        -0.010634      0.175486      0.090327
O	      4.18598      8.55698      6.23426        -0.026828      0.040764     -0.163586
O	      4.38363      6.39654      8.47183         0.262078      0.046493     -0.035951
O	      6.34448      8.40275      8.41940        -0.119200     -0.407458     -0.011763
O	      6.33941      6.25222     10.44560        -0.114742     -0.176277     -0.108212
O	      8.56420      8.46893     10.60998         0.176155      0.013624      0.063434
