# total energy = -249.43003743 eV
 
CRYSTAL
PRIMVEC
-0.018988 6.328871 6.284513 
6.313078 -0.004178 6.270073 
4.228360 4.229046 -0.022152 
PRIMCOORD
36 1
Li	      8.38579      8.39895     12.41228         0.009323     -0.065035      0.049978
Li	      6.47949      8.45095     10.44891         0.072919     -0.008123     -0.051363
Li	     10.45982      6.33502      8.39713        -0.027820      0.032826      0.037481
Li	      8.40621      4.26781      8.38634        -0.035743      0.012163      0.029239
Li	      8.43880      6.33890      6.27885        -0.042318      0.000483      0.003363
Li	      8.48648      6.42936     10.44426         0.017850     -0.019143      0.024168
Li	      2.09881      4.26557      6.23791         0.019263      0.048068     -0.017066
Li	      4.18786      6.29919      6.20093        -0.033994     -0.063511     -0.032872
Li	      8.42488      8.41684      8.46497        -0.016791     -0.034708     -0.008451
Ti	     10.39288      4.22466      6.11588        -0.076832     -0.038695     -0.015094
Ti	      2.16683      6.36541      8.26446        -0.031148      0.294094     -0.310856
Ti	      6.21911      4.06095      6.29643        -0.335051     -0.051052      0.040839
Ti	      6.47955      6.33157      8.34137         0.788468      0.127781     -0.150838
Mn	      6.30188      6.38411      4.25383        -0.033287      0.049981     -0.041709
V	      4.22827      8.43388      8.35294        -0.078736     -0.102292      0.065467
V	      4.11028      4.28966      4.16524        -0.061442      0.002665      0.017911
Fe	     10.45759      8.45001     10.44962         0.368354     -0.226338     -0.073507
Cu	      8.43878     10.45390     10.53282         0.001503      0.012722      0.094334
O	      2.19463      1.92732      2.08677        -0.227537     -0.288329     -0.035976
O	      4.31548      4.21955      2.01287         0.063732     -0.219730     -0.081382
O	      4.19834      2.25088      4.03477         0.018368     -0.075055      0.077641
O	      6.19289      4.18481      4.20290         0.023224     -0.092856      0.011338
O	      6.31871      2.15222      6.29687        -0.008689     -0.021077     -0.026326
O	      8.50827      4.26131      6.35211         0.075097      0.023464     -0.015436
O	      2.10399      4.24212      4.20431        -0.029398      0.110088     -0.045523
O	      4.19936      6.26219      4.17957        -0.012507     -0.005129      0.005672
O	      4.35733      4.17463      6.23268         0.326298      0.001180      0.093415
O	      6.33517      6.18669      6.40986        -0.053219     -0.062859      0.204250
O	      6.33165      4.30440      8.23594        -0.062276      0.120153     -0.058206
O	      8.26973      6.35207      8.35976        -0.653426     -0.007754     -0.015405
O	      1.94388      6.31211      6.42002        -0.000910      0.041640      0.234516
O	      4.18928      8.62501      6.33424        -0.070055      0.248646      0.017355
O	      4.09865      6.34323      8.26563         0.030247      0.208614     -0.019767
O	      6.24977      8.38208      8.32058         0.282405     -0.081252      0.028047
O	      6.39489      6.40675     10.48195         0.047312      0.043061     -0.027220
O	      8.51098      8.40103     10.43265        -0.253183      0.085312     -0.008015
