# total energy = -249.01328442 eV
 
CRYSTAL
PRIMVEC
0.019709 6.318276 6.350453 
6.425357 0.017269 6.353085 
4.274986 4.205271 0.020039 
PRIMCOORD
36 1
Li	      2.19707      2.07043      0.11383        -0.022205      0.029891      0.029088
Li	      2.16648      0.22425      2.07069         0.056360      0.030641     -0.016576
Li	      4.10256      2.08318      2.12114        -0.048953     -0.011248     -0.002880
Li	      8.54371      4.23296      4.26248         0.008837      0.009884      0.002697
Li	      4.41410      6.25210      2.26062         0.013482      0.014661      0.008304
Li	      2.03212      2.09086      4.08586        -0.018223      0.018254     -0.024184
Li	      4.24580      8.18543      4.32530         0.022794     -0.081132      0.057563
Li	      2.27934      6.35913      4.27688        -0.009988     -0.053295      0.019275
Li	      4.21820      6.38661      6.29503        -0.023790     -0.022344      0.023844
Ti	      6.38224      2.16239      4.24103         0.014707      0.046130      0.192403
Ti	      2.00775      4.31818      6.24508        -0.189787      0.074657     -0.193422
Ti	      4.35900      4.25234      8.53767         0.132350      0.125658      0.099807
Ti	      6.35419      6.28427      8.57028        -0.095252     -0.134986     -0.017848
Mn	      6.52042      4.26534      6.29406         0.059896     -0.013307     -0.046001
V	      2.15716      4.12793      2.16951         0.015065     -0.031098     -0.011027
V	      4.30777      4.30664      4.20067        -0.145455      0.113441     -0.073634
Fe	      8.58898      6.29388      6.37360        -0.010171     -0.012253     -0.033918
Ni	      4.30159     10.49151      6.39680        -0.044582      0.077100     -0.009053
O	      2.12317      2.21403      2.11617         0.011795     -0.076071      0.010370
O	      4.13236      4.23749      2.19804         0.011321      0.036248      0.011280
O	      4.45192      2.20003      4.19366         0.204066      0.035015      0.122105
O	      6.41581      4.12125      4.17686        -0.031869     -0.146332      0.018488
O	      6.45303      2.06063      6.16358         0.124985      0.110730     -0.316179
O	      8.64361      4.21996      6.41825        -0.084107     -0.099089      0.109886
O	      2.18728      4.19222      4.34576         0.009211     -0.013197      0.198502
O	      4.29724      6.21162      4.27997         0.013278      0.005337      0.057441
O	      4.22774      4.20685      6.37764         0.009379      0.109753      0.095645
O	      6.47163      6.44683      6.53852        -0.195283     -0.001996      0.175911
O	      6.42448      4.24753      8.49754        -0.171647      0.113641      0.019492
O	      8.45475      6.32558      8.52116        -0.068955      0.069175     -0.093122
O	      2.10264      6.18149      6.39471         0.095312     -0.227279      0.009113
O	      4.42471      8.43060      6.34837         0.278085     -0.096209      0.017072
O	      4.38450      6.23525      8.44766         0.056954     -0.047966      0.005279
O	      6.54719      8.34719      8.48430         0.056740     -0.039826      0.030572
O	      6.40200      6.45878     10.49361        -0.036806      0.062735     -0.213894
O	      8.46039      8.42420     10.43793         0.002455      0.024679     -0.262399
