# total energy = -253.40394325 eV
 
CRYSTAL
PRIMVEC
0.007576 6.344343 6.339964 
6.331513 -0.010452 6.358297 
4.214577 4.235213 -0.000640 
PRIMCOORD
36 1
Li	      6.30294     10.48823      8.44507        -0.014450     -0.042762      0.006271
Li	      4.29650      8.50071      8.43711         0.016018      0.009124     -0.004193
Li	      2.14666      4.25792      2.11774         0.023645      0.047466      0.012884
Li	      2.11945      2.11215      4.19622        -0.034495      0.021454     -0.061806
Li	      6.33369      4.24697      6.38654        -0.064414     -0.024691      0.029241
Li	      2.10686      6.31639      4.20904         0.035309     -0.015670      0.010648
Li	      6.32044      8.48085      6.48224        -0.000638     -0.003071      0.057177
Li	      8.37456      8.46366      8.40530         0.006923     -0.017887     -0.038633
Li	      6.34257      6.37168      8.46972        -0.015021     -0.021651      0.015373
Ti	      2.11162      2.08502      0.14016         0.156929     -0.213101      0.293487
Ti	      4.14242      6.34715     10.42682        -0.140630      0.015818     -0.513087
Ti	      8.25615      6.37994      6.47595        -0.366238      0.166884      0.295104
Ti	      0.14299      4.16675      4.10030         0.281945     -0.070897     -0.221442
Mn	      4.15416      4.24135      4.17751        -0.012888      0.028077     -0.041581
V	      6.37280      8.41046     10.45839        -0.000296     -0.001456     -0.017598
V	      6.35387      2.15759      8.42959         0.002699     -0.025852      0.024633
Fe	      4.24064      4.18216      0.10096         0.067033     -0.000021     -0.061594
Fe	      4.28978      6.28547      6.43583         0.014526     -0.067568     -0.021339
O	      2.14036      2.18000      1.99567         0.070908      0.029697     -0.299825
O	      4.22540      4.28603      2.08513         0.050286     -0.041497      0.127706
O	      4.25710      1.97326      4.34268        -0.021054     -0.103376      0.002539
O	      6.43027      4.12550      4.22810         0.201413      0.068626     -0.003531
O	      6.38517      2.12131      6.28114         0.075910      0.066423     -0.073954
O	      8.39865      4.24635      6.26142        -0.039894     -0.019456     -0.026777
O	      1.97691      4.26717      4.25356        -0.305585     -0.017369     -0.070957
O	      4.22191      6.45579      4.20047         0.023818      0.192752      0.021995
O	      4.21782      4.06016      6.31666        -0.034404     -0.224186      0.056409
O	      6.39435      6.31462      6.36988         0.376800     -0.001790      0.000088
O	      6.30687      4.26137      8.60165         0.025571      0.016757      0.283963
O	      8.45688      6.32722      8.32428        -0.073952      0.013909     -0.327937
O	      2.19891      6.50523      6.32759        -0.068711      0.224799      0.044960
O	      4.09767      8.44208      6.22746        -0.131736      0.021908      0.010565
O	      4.24136      6.33550      8.58753        -0.063534      0.011192      0.519941
O	      6.32916      8.43421      8.57584         0.008230     -0.008598     -0.005274
O	      6.25141      6.31908     10.64641        -0.038331     -0.059528     -0.069991
O	      8.47953      8.57742     10.66029        -0.011689      0.045539      0.046536
