# total energy = -254.06587708 eV
 
CRYSTAL
PRIMVEC
0.012623 6.327543 6.346143 
6.224470 0.006220 6.352319 
4.160876 4.233345 -0.006708 
PRIMCOORD
36 1
Li	      0.03233      6.32317      6.35640         0.005556      0.064842      0.009551
Li	      4.17628      8.45568      8.41714         0.006250     -0.028528     -0.030315
Li	     10.33283      6.37666      8.46571        -0.015859      0.043466     -0.017783
Li	      4.15920      4.27321      4.26729         0.024877      0.031090      0.070155
Li	      6.16583      4.18954      6.37466        -0.045136     -0.090261      0.021738
Li	      4.12148      8.40994      4.23522        -0.071151     -0.017772     -0.041844
Li	      2.16492      6.37828      4.22199         0.058172      0.100329     -0.018452
Li	      4.14699      6.29902      6.31793        -0.029068     -0.074376     -0.021860
Li	      4.20380      4.18709      8.45060        -0.015377     -0.045143     -0.051817
Ti	      2.18372      4.22948      2.14846         0.319933      0.052221     -0.090746
Ti	      6.13011      6.35710      4.25853        -0.309030     -0.110819      0.048021
Ti	      2.05267      4.26985      6.26969         0.075583      0.027717      0.013412
Ti	      6.16158      6.27633      8.47102        -0.236578     -0.134260      0.033844
Mn	      6.17279      4.22312      2.08254         0.030409     -0.007210      0.034892
V	      2.14304      8.40616      6.34579        -0.134468     -0.057023      0.008835
V	      6.21171      2.12494      4.23451        -0.039689      0.069814      0.022304
V	      4.20579      6.34319     10.61152        -0.007886      0.063966      0.027531
Co	      4.23399      2.16222      6.39318        -0.174954     -0.179528     -0.111076
O	      2.07630      2.19307      2.16251         0.072996      0.071997      0.027225
O	      4.03161      4.24970      2.13818        -0.298979     -0.047322      0.060668
O	      4.12557      2.11112      4.26539         0.124374      0.168564      0.371920
O	      6.25076      4.26058      4.25164        -0.053518      0.071669      0.074159
O	      6.33015      2.10906      6.29535         0.121520      0.006648      0.029245
O	      8.33823      4.15102      6.43899         0.079063      0.281316      0.135597
O	      2.08191      4.19301      4.21494        -0.021804      0.020228     -0.047281
O	      4.32151      6.34889      4.21240         0.267927      0.020604      0.031313
O	      3.96176      4.18700      6.34248         0.062499     -0.282635      0.017413
O	      6.22151      6.39624      6.35003        -0.109979     -0.010584     -0.007456
O	      6.31765      4.36873      8.45760         0.015782      0.102663     -0.028367
O	      8.24409      6.22691      8.43975        -0.027289      0.097663     -0.234579
O	      2.09755      6.30411      6.31336         0.039180     -0.107485     -0.033658
O	      4.21641      8.45659      6.32476         0.001796     -0.014458     -0.015288
O	      4.25324      6.31276      8.49266         0.203044      0.013754     -0.076516
O	      6.24010      8.34960      8.39346        -0.080015     -0.041627     -0.013874
O	      6.27571      6.41491     10.42462         0.072949      0.017103     -0.138096
O	      8.26358      8.48812     10.65610         0.088869     -0.076626     -0.058815
