# total energy = -252.14972155 eV
 
CRYSTAL
PRIMVEC
0.038714 6.258163 6.711814 
6.266817 0.039258 6.710953 
4.159547 4.153383 0.045795 
PRIMCOORD
36 1
Li	      6.13484      0.07237      6.55676         0.020787     -0.002771      0.030272
Li	      2.07555      2.10315      0.12726         0.030318      0.003798     -0.003956
Li	      6.29802      4.15466      2.60612        -0.052951      0.008484     -0.006942
Li	      8.40079      4.14856      4.77851         0.035091      0.026331     -0.007569
Li	      6.21081      2.10350      4.63470        -0.015678      0.013538      0.070259
Li	      8.33277      4.24247      8.73111        -0.010342     -0.030855      0.046640
Li	      4.26898      4.11514      4.42849        -0.026487      0.007321      0.011435
Li	      8.33768      6.16736      6.97961         0.006032     -0.005916     -0.048104
Li	      6.25706      4.29652     11.15256         0.000469     -0.039905      0.028848
Ti	      4.19757      2.19910      2.26574        -0.108540      0.084529      0.361005
Ti	      0.08252      1.98005      2.16033         0.000893     -0.085333     -0.294628
Ti	      2.12595      4.19313      6.61157        -0.041479      0.075190     -0.277370
Ti	      4.21360      4.31272      9.01484         0.000649      0.091966      0.352694
Mn	      2.15425      2.06639      4.42948        -0.023116     -0.046372      0.044054
V	      8.28838      6.29025     11.15611         0.185924     -0.016390      0.035942
V	      4.17491      6.26028      6.64160         0.020012      0.064786     -0.092195
V	      6.36677      4.15435      6.68411         0.019652     -0.060807     -0.212253
Cu	      6.11303      6.38140      9.31803        -0.116080      0.037974      0.044148
O	      2.10166      2.08311      2.22776        -0.017350     -0.006412     -0.034537
O	      4.18369      4.14947      2.27560         0.013594     -0.022833      0.031605
O	      4.25141      2.05268      4.09077         0.008889      0.020265     -0.318551
O	      6.22915      4.13209      4.71790        -0.007048     -0.075954      0.073030
O	      6.28322      2.08871      6.98567        -0.004323     -0.075195      0.267091
O	      8.26590      4.18420      6.76692         0.006997      0.058283      0.003875
O	      2.12648      4.18570      4.69906         0.005901      0.012994      0.230386
O	      4.12402      6.26558      4.35515        -0.015227      0.025338     -0.063444
O	      4.15371      4.15037      6.87141        -0.053254     -0.040285      0.034283
O	      6.28189      6.31767      6.67787         0.067998      0.127334      0.038216
O	      6.18423      4.07288      8.80010        -0.034051     -0.060174     -0.019565
O	      8.50975      6.33659      9.07454         0.111577     -0.009472     -0.103693
O	      2.12819      6.18460      6.48300        -0.065451     -0.148126      0.039477
O	      4.30321      8.32680      6.90642         0.131811      0.092699      0.061253
O	      4.12591      6.25643      8.77830         0.041276     -0.051526      0.082633
O	      6.29621      8.44772      8.76444         0.045246      0.010885     -0.014426
O	      6.36222      6.28700     11.28378        -0.162141      0.004259     -0.070187
O	      8.33842      8.38622     10.90535         0.000405      0.012352     -0.319725
