# total energy = -254.36338894 eV
 
CRYSTAL
PRIMVEC
-0.013085 6.462329 6.369190 
6.372745 0.042831 6.313008 
4.295146 4.317256 -0.017116 
PRIMCOORD
36 1
Li	      4.40088     10.49723      6.34948         0.022322      0.074627      0.046912
Li	      2.38917      8.52321      6.33365        -0.098440     -0.014346      0.000226
Li	      2.25507      6.50702      8.27384         0.097545      0.045775     -0.084519
Li	      4.25390      8.51998      8.23309        -0.019592     -0.015077      0.129791
Li	      4.25473      6.45375     10.47103         0.000612     -0.000962     -0.046931
Li	      6.39220      6.50742      4.22043        -0.059276      0.004551      0.002541
Li	      4.24724      8.64523      4.50657        -0.066960     -0.009536     -0.079166
Li	      6.12003      8.73414      6.40180         0.083363      0.034979      0.073717
Li	      4.18763      6.76295      6.42442         0.016809     -0.111522      0.000100
Ti	      6.41071      8.55761     10.52875         0.058557     -0.191388     -0.022190
Ti	      2.18859      4.14600      2.10761         0.096078     -0.547183     -0.011688
Ti	      4.24898      4.33785      4.23659        -0.056750      0.135150     -0.000360
Ti	      6.45544      4.42937      6.27432         0.113036      0.168959     -0.131371
Mn	      4.17894      4.46055      8.42424         0.023151      0.032266     -0.051203
V	      0.02171      2.13082      2.09885        -0.004149     -0.003289     -0.017499
V	      4.22911      2.15860      6.29086         0.024779     -0.009821      0.037657
V	      2.14308      6.46589      4.40291         0.033690      0.027271     -0.083567
Fe	      6.24735      6.56405      8.44281         0.156457     -0.015300     -0.020570
O	      2.11785      2.29401      2.15848         0.048248      0.508613     -0.014284
O	      4.13830      4.34921      2.20268        -0.221808     -0.049751      0.129396
O	      4.39113      2.32170      4.23214         0.079190      0.122753     -0.086055
O	      6.30571      4.27784      4.30825        -0.055793     -0.002896      0.152087
O	      6.33757      2.34677      6.25902         0.045151      0.114091     -0.150981
O	      8.42974      4.37645      6.42742        -0.191906     -0.048034      0.099143
O	      2.25899      4.33996      4.13195         0.096928     -0.042461     -0.088988
O	      4.19078      6.31845      4.18485         0.083485     -0.209657      0.050829
O	      4.39848      4.27416      6.23313         0.097346      0.038351     -0.161064
O	      6.43390      6.33638      6.27672        -0.073450     -0.244756     -0.029865
O	      6.48896      4.30869      8.33116         0.096210      0.031421     -0.080314
O	      8.47766      6.42068      8.45983        -0.055171     -0.070256      0.062571
O	      2.13808      6.44273      6.26930        -0.003024     -0.044949      0.156618
O	      4.27516      8.63573      6.33248        -0.005926      0.008292      0.035849
O	      4.29206      6.50192      8.49956        -0.133340     -0.000709     -0.048648
O	      6.36931      8.71121      8.62851        -0.007172      0.015294      0.203110
O	      6.44779      6.63428     10.60657        -0.123428      0.266875      0.036037
O	      8.36524      8.61151     10.58528        -0.096771      0.002624     -0.007321
