# total energy = -252.88173036 eV
 
CRYSTAL
PRIMVEC
0.048959 6.405304 6.352192 
6.381359 0.023570 6.377580 
4.254480 4.287284 0.015430 
PRIMCOORD
36 1
Li	      4.30516     10.65556      6.39689        -0.017456     -0.029141      0.003575
Li	      4.24328      2.16788      2.31769        -0.039255      0.028790      0.035300
Li	      4.14893      0.25034      4.30331        -0.055343     -0.007209      0.068712
Li	      2.32409      2.12856      4.37041        -0.060549      0.012772      0.014523
Li	      4.22809      4.09963      4.42623        -0.021660     -0.021858     -0.092585
Li	      4.13868      2.30742      6.17892         0.017231      0.021320      0.048680
Li	      6.27479      4.37760      6.27013         0.022542      0.024828     -0.047609
Li	      2.32070      4.23064      6.29560        -0.029985     -0.024585     -0.056818
Li	      4.33389      6.26418      6.29985         0.058903     -0.003235     -0.059401
Ti	      8.67538      8.68594     12.71725         0.212749      0.393065     -0.020278
Ti	      6.44058     10.68057      8.51533         0.004396     -0.056069      0.379520
Ti	      4.25835      6.30437      2.08046        -0.088773     -0.138378     -0.077179
Ti	      6.25112      6.53027      8.36876        -0.098588      0.004907     -0.725308
Mn	      6.20523      2.18431      4.38866        -0.050546      0.053988      0.052104
Mn	      4.27740      4.28504      8.27685         0.020292      0.020436      0.024401
V	      2.19345      6.33524      4.33346         0.004861     -0.187584     -0.030936
V	      0.06194      4.28533      4.27087         0.248160     -0.045908      0.011698
Co	      2.19493      4.23682      2.12195        -0.035989      0.061139      0.023419
O	      2.06132      2.05664      2.02253        -0.024246     -0.006461     -0.040406
O	      4.30483      4.37658      2.11387         0.126564      0.154629     -0.006786
O	      4.21262      2.14438      4.26266         0.012477     -0.018362     -0.001987
O	      6.43098      4.28915      4.01812        -0.026139      0.050044     -0.394350
O	      6.49505      2.17527      6.54677         0.139169     -0.033293      0.213507
O	      8.53498      4.13468      6.42805         0.054278     -0.467594     -0.004464
O	      2.09430      4.34030      4.22586         0.030868      0.120536     -0.036849
O	      4.21356      6.55691      4.09837        -0.040869     -0.012482     -0.016828
O	      4.30674      4.30602      6.29347        -0.010382      0.003705      0.003631
O	      6.42297      6.41461      6.56514        -0.086242      0.037631      0.603163
O	      6.46156      4.33930      8.59719        -0.048398      0.056263     -0.000888
O	      8.59408      6.40927      8.60541         0.052463     -0.122694     -0.078630
O	      2.17314      6.49727      6.41924        -0.001884      0.070469      0.152422
O	      4.18856      8.57407      6.28769        -0.349417      0.072109     -0.013241
O	      4.33708      6.44523      8.48110         0.130812      0.054077      0.016414
O	      6.37803      8.51641      8.47062        -0.066245     -0.077433      0.001985
O	      6.52799      6.36402     10.50826         0.060748      0.055884     -0.018843
O	      8.56812      8.46298     10.75839        -0.044547     -0.044305      0.070335
