# total energy = -90.90324243 eV
 
CRYSTAL
PRIMVEC
2.088614 2.088485 -0.000147 
-4.171207 4.170648 3.963235 
4.170788 -4.170828 3.963023 
PRIMCOORD
16 1
Li	     -1.04180      3.13593      4.98850        -0.000112     -0.012169     -0.032276
Li	      1.04787      1.04445      0.98946        -0.014500      0.001493      0.006727
Li	      1.04486      1.04089      4.95481        -0.007707      0.011904     -0.006946
Li	      3.12797     -1.03765      4.92126         0.002321     -0.007936      0.029396
Mn	      1.07296      3.10212      2.97284        -0.037426      0.045251     -0.000960
Mn	      3.10074      1.07514      6.93491         0.040646     -0.039570      0.002236
Ni	      3.09481     -3.09221      2.97316         0.062730     -0.067734     -0.003211
Ni	      1.07591     -1.07239      2.97301        -0.066041      0.055951     -0.002433
O	      3.12948     -1.03737      2.97391         0.001918     -0.007271     -0.009363
O	      1.01030      1.07804      2.97358        -0.016153      0.014845     -0.003754
O	      1.07472      1.01228      6.93416         0.020496     -0.014808      0.011226
O	     -1.04257      3.12672      2.97193         0.001429      0.011162      0.002512
O	     -3.13066      3.13029      4.86325        -0.001415      0.005745     -0.060437
O	      1.04573      3.12785      1.08171         0.007392      0.008654      0.066942
O	     -1.04371      1.04352      4.86396         0.008999     -0.010091     -0.067218
O	      3.12891      1.04706      5.04416        -0.002576      0.004573      0.067558
