# total energy = -256.86274443 eV
 
CRYSTAL
PRIMVEC
-0.004591 6.326149 6.302718 
6.390263 -0.033193 6.331783 
4.248365 4.224750 -0.010471 
PRIMCOORD
36 1
Li	      4.19849      4.27188      0.11345        -0.036304      0.048110     -0.022517
Li	      2.13885      2.11988      0.13160         0.005141      0.042130     -0.128126
Li	      2.08716      0.19589      1.99682        -0.031284     -0.023814     -0.026833
Li	      4.04358      2.13171      2.02090        -0.021307      0.033342      0.007647
Li	      0.11316      2.05225      1.99802        -0.032179      0.022098     -0.034323
Li	      2.15097      4.15494      2.03059        -0.047057      0.048571     -0.033981
Li	      8.54581      6.22436      6.47136         0.033863     -0.008983      0.071693
Li	      6.34981      4.21880     10.52729        -0.035946      0.026846      0.052146
Li	      6.47486      6.25192      8.40811         0.067997     -0.050030      0.045930
Ti	      4.37455      6.35656     10.44213         0.071527      0.062556     -0.066441
Ti	      4.27766      4.10314      4.05776         0.002106     -0.056322     -0.436147
Ti	      6.49153      4.07589      6.40876         0.140674     -0.237142      0.313385
Ti	      6.23905      8.41039      6.44900        -0.169042      0.024411      0.230672
Mn	      2.05639      2.14155      4.00728         0.017386      0.029236     -0.016147
Mn	      8.57664      8.33604      8.42626         0.018699     -0.040003      0.045340
V	      6.34469      2.11848      4.16958         0.018431     -0.076046     -0.037123
V	      8.49241      6.27085     10.49704        -0.187737      0.053076      0.010491
Cr	      4.23303      6.32234      6.36377         0.035101      0.040366      0.058278
O	      2.10654      2.13353      2.01733        -0.039023      0.034303     -0.046174
O	      4.27274      4.21122      2.25175        -0.020371     -0.011989      0.270643
O	      4.25708      2.08705      4.21076        -0.040230     -0.004964     -0.048670
O	      6.36326      4.21950      4.29724         0.046900      0.015929      0.018112
O	      6.32913      2.22447      6.29043         0.064176      0.252519      0.074186
O	      8.38314      4.26605      6.14717        -0.138820     -0.075226     -0.085685
O	      2.25001      4.24572      4.36586        -0.000964      0.065546      0.071461
O	      4.14797      6.23327      4.34176         0.034686     -0.034612      0.186004
O	      4.30849      4.28490      6.24523        -0.024545      0.025451     -0.079753
O	      6.26886      6.37979      6.29730        -0.018334     -0.024439      0.090670
O	      6.43102      4.22636      8.24253         0.051002     -0.035891     -0.276024
O	      8.50230      6.25904      8.56944         0.104207     -0.036373     -0.079217
O	      2.19382      6.17718      6.26752         0.091834     -0.024753      0.040376
O	      4.37092      8.34466      6.30473         0.183236     -0.005447      0.064648
O	      4.25814      6.32135      8.49501        -0.002446      0.032893      0.027248
O	      6.40165      8.42233      8.30510        -0.036243     -0.051188     -0.324266
O	      6.37359      6.31803     10.57357        -0.188965     -0.079565     -0.025962
O	      8.50009      8.47592     10.55811         0.083831      0.019404      0.088460
