# total energy = -252.51306153 eV
 
CRYSTAL
PRIMVEC
0.007741 6.340410 6.410255 
6.255553 0.013121 6.404555 
4.193736 4.246342 -0.014173 
PRIMCOORD
36 1
Li	      6.30308      4.22044      2.20598         0.018713     -0.029621     -0.015001
Li	      6.29545      2.21490      4.22205         0.004411      0.057358     -0.038046
Li	     10.44620      6.39835      8.55867        -0.010297     -0.001473     -0.037384
Li	      6.27574      6.30000      4.25696        -0.000890     -0.008144     -0.038688
Li	      6.27342      4.25186      6.35153         0.010115     -0.007725     -0.010134
Li	      4.18965      8.43506      4.23196        -0.002498     -0.047781     -0.011308
Li	      8.39950      6.38044     10.63997         0.078118      0.023974     -0.002275
Li	      2.10778      4.22133      6.39473         0.003526     -0.020870      0.008848
Li	      8.36345      8.49195      8.56901        -0.006054      0.018538     -0.003117
Ti	      8.25694      8.47087     12.66853        -0.165493      0.065827     -0.196393
Ti	      2.02296      4.19959      2.26772        -0.045092     -0.068140      0.175940
Ti	      4.24091      6.27003      6.30353         0.067303     -0.161109     -0.141572
Ti	      6.25565      6.40729      8.69470        -0.041465      0.065373      0.229294
Mn	      4.30336      4.26465      4.22147        -0.041301     -0.010097     -0.008671
Mn	      4.15139      2.15374      6.35076         0.024006      0.014685     -0.079894
V	      0.07970      6.31203      6.34121         0.000493     -0.027130      0.005659
V	      4.19071      2.10695      2.16268        -0.025509      0.036806      0.003214
Cu	      8.22962      4.24540      4.22830         0.159669     -0.016214      0.006310
O	      2.13754      2.23295      2.04744        -0.073426      0.082252      0.021014
O	      4.10858      4.19941      2.06613        -0.025154      0.064035      0.057321
O	      4.15453      2.10006      4.15997        -0.015040      0.054334      0.022072
O	      6.29014      4.26030      4.23424        -0.165279      0.008474     -0.006302
O	      6.34508      2.10582      6.42841         0.179852      0.097043     -0.022692
O	      8.40209      4.14900      6.55175        -0.112230     -0.054980      0.210757
O	      2.14480      4.22949      4.11739         0.002930      0.054354     -0.236496
O	      4.21087      6.38572      4.42896         0.024775      0.049724      0.170378
O	      4.15359      4.36520      6.42207         0.021261      0.190980     -0.054643
O	      6.16967      6.38434      6.50984        -0.123912     -0.041901      0.012932
O	      6.36669      4.34241      8.56494         0.094006      0.037164      0.045805
O	      8.24332      6.26924      8.51649        -0.093391     -0.031168      0.090126
O	      2.19379      6.47470      6.42809         0.110179      0.062793     -0.027233
O	      4.11470      8.41205      6.50071         0.009507     -0.054809     -0.031642
O	      4.27926      6.37345      8.39658         0.055547     -0.146957     -0.178053
O	      6.21407      8.34268      8.53474         0.031272     -0.189068      0.058890
O	      6.22626      6.34833     10.58204         0.067239     -0.000733     -0.196426
O	      8.36891      8.50679     10.82041        -0.015893     -0.065796      0.217412
