# total energy = -254.81673150 eV
 
CRYSTAL
PRIMVEC
0.023563 6.330545 6.376228 
6.312493 0.026453 6.373241 
4.221691 4.231842 0.004247 
PRIMCOORD
36 1
Li	      4.21052      4.18922      0.07627        -0.025437     -0.039949     -0.016133
Li	      2.15822      8.45050      6.38945         0.021329      0.025063     -0.033954
Li	      4.27740      8.42098      8.36638        -0.014758     -0.021501     -0.087608
Li	      4.24001      6.35490     10.56620         0.024582     -0.015406     -0.076981
Li	      6.32838      2.15362      8.39226         0.023850      0.033337     -0.068780
Li	      6.32890      4.19454      6.45741         0.021703     -0.005749      0.036203
Li	      6.27451      8.46796      6.50632        -0.036892     -0.018445      0.085855
Li	      4.22472      4.30975      8.44382         0.006073      0.013340     -0.000842
Li	      6.24372      6.37692      8.50235        -0.086822      0.006441      0.023313
Ti	      6.38707      8.44127     10.57362         0.069067     -0.110384     -0.122969
Ti	      8.40207      4.25612      8.37183        -0.169577      0.026273     -0.269227
Ti	      6.38625      6.25435      4.25663         0.047096     -0.032055      0.117624
Ti	      2.09634      6.34138      4.30646        -0.044194      0.060207      0.118757
Mn	      4.22791      4.20953      4.22362         0.051891     -0.031854      0.032250
Mn	     10.46827      8.56218     10.65345        -0.038709      0.000097     -0.022357
V	      4.24289      2.20249      6.44689        -0.010602      0.018876      0.005414
V	      4.26856      6.35314      6.46701         0.001836     -0.084924      0.018033
Fe	      2.08500      6.34142      8.44153        -0.041560     -0.010895     -0.123915
O	      2.11308      2.24421      2.28493         0.039875      0.054777      0.077409
O	      4.17734      4.24868      2.08987        -0.096004      0.030530     -0.016200
O	      4.18038      2.06049      4.33556        -0.032290     -0.048554      0.030197
O	      6.39695      4.27981      4.25855         0.057858      0.059089      0.011967
O	      6.20852      2.16702      6.21485         0.065054      0.014166      0.008565
O	      8.44353      4.34972      6.49377        -0.001871     -0.019819      0.334187
O	      2.11208      4.23283      4.15964         0.024604      0.031603     -0.033062
O	      4.28417      6.33401      4.34505         0.018699     -0.010630     -0.061113
O	      4.22064      4.21187      6.41354         0.011874     -0.029535     -0.007982
O	      6.39289      6.38219      6.23185         0.048016     -0.011720     -0.094920
O	      6.51393      4.26543      8.50187         0.181906      0.018935     -0.027240
O	      8.49301      6.26938      8.61375         0.015009     -0.024591      0.038033
O	      2.16890      6.30137      6.21094        -0.090815      0.006816     -0.188036
O	      4.22853      8.31243      6.36375        -0.027734      0.082923      0.061202
O	      4.14463      6.31283      8.40126         0.074696      0.047327      0.071556
O	      6.27547      8.44673      8.70018        -0.001862     -0.055317      0.201883
O	      6.42387      6.45579     10.63600         0.059058      0.099292     -0.007712
O	      8.34705      8.38925     10.62039        -0.144948     -0.057764     -0.013416
