# total energy = -251.11964522 eV
 
CRYSTAL
PRIMVEC
0.033488 6.204876 6.412705 
6.344470 0.002209 6.444897 
4.235363 4.163725 -0.004514 
PRIMCOORD
36 1
Li	      6.36955      6.21232     12.75567        -0.042823      0.020617     -0.048910
Li	      2.26960      6.17432      8.57849        -0.049150     -0.010107      0.044989
Li	      4.32494      6.21865     10.57832        -0.034169      0.004023      0.008068
Li	      6.37952      8.14132     10.65236        -0.038364     -0.001311     -0.003751
Li	      8.46336      4.17334      8.58240         0.016107      0.026794     -0.052760
Li	      6.38752      6.22801      4.31583        -0.003744     -0.025497      0.095821
Li	      8.36043      6.23501     10.68373         0.014179      0.004523     -0.027425
Li	      4.26674      6.21411      6.60227         0.032389     -0.011387      0.142591
Li	      6.25905      6.23207      8.66973        -0.043362      0.011341     -0.011712
Ti	      2.15937      8.19543      6.33949        -0.033279      0.013893     -0.058629
Ti	      4.24308      6.16688      2.18848         0.031333     -0.331639      0.170485
Ti	      6.43595      4.24851      6.35916        -0.004777      0.033313     -0.549556
Ti	      6.31617      8.40149      6.46617         0.002431      0.015036      0.181880
Mn	      4.20089      1.99040      2.25759        -0.004762      0.094881      0.069081
Mn	      4.21862      4.16992      4.26132         0.056509      0.012696      0.015142
V	      6.39107      4.25098     10.68881        -0.005827     -0.017548      0.016544
V	      4.26247      2.01540      6.38627         0.003453      0.038361     -0.050178
Ni	      8.46441      8.36275      8.62441        -0.097721     -0.049577      0.079060
O	      2.01950      2.09374      1.92813        -0.110641     -0.009460     -0.105489
O	      4.21334      4.26827      2.12804        -0.000199      0.239616     -0.019265
O	      4.23933      2.06083      4.42043        -0.009922      0.013946      0.028858
O	      6.33281      4.15593      4.51871         0.069213      0.048953      0.491084
O	      6.40970      2.13463      6.50018         0.069354     -0.016671      0.028721
O	      8.40185      4.15431      6.47074        -0.039834     -0.063516     -0.012594
O	      2.06661      4.12050      4.45378        -0.013951      0.032554      0.035270
O	      4.28615      6.31962      4.07837         0.001525      0.018705     -0.265081
O	      4.23361      4.09414      6.48017        -0.017428      0.063280     -0.019361
O	      6.39667      6.21950      6.44670        -0.029310     -0.053471      0.010013
O	      6.34057      4.08479      8.51269         0.132907     -0.015119     -0.050870
O	      8.63488      6.27807      8.43357         0.117091     -0.117231      0.029159
O	      2.15670      6.19911      6.38796         0.018418     -0.006551     -0.010382
O	      4.26566      8.30086      6.37726         0.020218     -0.007768     -0.095613
O	      4.22093      6.16547      8.59567         0.035651      0.144368      0.003310
O	      6.38618      8.30899      8.37153        -0.061029     -0.014464     -0.194697
O	      6.39430      6.14815     10.69964        -0.005986     -0.050778     -0.011078
O	      8.56198      8.26686     10.83407         0.025504     -0.034803      0.137272
