# total energy = -255.68386190 eV
 
CRYSTAL
PRIMVEC
0.019008 6.327052 6.338589 
6.466519 -0.063421 6.420788 
4.258621 4.220413 0.010246 
PRIMCOORD
36 1
Li	      4.33374      4.16019      0.16795         0.030677     -0.043587     -0.089844
Li	      6.23474      4.30601      2.08151         0.097300      0.072679     -0.123154
Li	      4.21530      2.25175      2.07095        -0.096592     -0.076721     -0.118559
Li	      4.38679      6.18638      2.24184         0.113759      0.011286     -0.002827
Li	      2.08477      2.16915      4.16252         0.054887     -0.038645     -0.075162
Li	      8.54961      6.28732      6.40008        -0.029225     -0.114747     -0.020630
Li	      0.17241      4.13583      4.29710        -0.013711      0.061544      0.082020
Li	      2.18950      6.24902      4.28650        -0.007588      0.032949      0.079584
Li	      2.04837      4.29405      6.25915        -0.148062      0.164689      0.046074
Ti	      6.37257      2.01855      4.27820         0.032502     -0.100429      0.153185
Ti	      6.44575      4.14979      6.43326         0.371295      0.039434     -0.202489
Ti	      8.62497      8.32906      8.50060        -0.174624      0.062602      0.193842
Ti	      6.46785      6.31115      8.50998        -0.060921      0.129075      0.064558
Mn	      2.22439      4.22045      2.19137        -0.059377     -0.030298     -0.125764
Mn	      4.27140      6.39414      6.29529        -0.199713      0.226661      0.038140
V	      2.21322      8.35223      6.40688        -0.303412      0.526750     -0.186068
V	      4.27495     -0.00447      4.25646         0.030660      0.003925      0.089660
V	      4.24488      4.24039      4.25157        -0.159810      0.235003     -0.400920
O	      2.15319      2.10318      1.96358        -0.055519      0.003950      0.540714
O	      4.29998      4.21517      2.21268         0.070168     -0.052095      0.719825
O	      4.44095      2.12838      4.28239        -0.004103      0.172544      0.001627
O	      6.38624      4.09993      4.36581        -0.212855     -0.055445     -0.113318
O	      6.53873      2.13342      6.29853        -0.409237      0.083259     -0.151318
O	      8.46926      4.04557      6.37702        -0.232002      0.392691     -0.000910
O	      2.27068      4.16996      4.32045         0.467702     -0.037135      0.003566
O	      4.32498      6.20081      4.23040         0.075268     -0.370723      0.167508
O	      4.39579      4.15949      6.46302        -0.072719     -0.233556     -0.101623
O	      6.46801      6.14175      6.51013         0.001991     -0.055396      0.040440
O	      6.40582      4.23962      8.49792        -0.102833     -0.170893      0.035283
O	      8.47799      6.37010      8.52449         0.070204      0.041067     -0.039675
O	      2.08873      6.51126      6.31673         0.141371     -0.772971     -0.037741
O	      4.11792      8.50071      6.30969         0.626928     -0.128018     -0.017596
O	      4.43630      6.18470      8.47923         0.092760     -0.081223     -0.048674
O	      6.55396      8.33527      8.56423         0.099131     -0.024148      0.087282
O	      6.42995      6.35798     10.52954         0.032933      0.185274     -0.202548
O	      8.47272      8.41090     10.58172        -0.067235     -0.059352     -0.284492
