# total energy = -256.90186467 eV
 
CRYSTAL
PRIMVEC
0.061233 6.423064 6.258710 
6.448575 0.078151 6.241664 
4.336581 4.307915 0.014811 
PRIMCOORD
36 1
Li	      6.48729     10.60199      8.40305        -0.015342      0.002606     -0.001095
Li	      4.53150      8.68173      8.37761         0.015220      0.008493     -0.002514
Li	      6.52544      8.61932     10.30995         0.021061     -0.011583      0.046432
Li	     10.62353      6.48517      8.37365         0.008716     -0.045387      0.054757
Li	      8.65192      4.56293      8.41461         0.016808     -0.049541     -0.005132
Li	      8.65509      6.45888      6.42690        -0.001397     -0.025167     -0.049129
Li	      6.49697      4.40101     10.29923        -0.043902      0.000833     -0.003325
Li	      8.63963      6.39773     10.27393         0.022130     -0.074347      0.067384
Li	      6.69642      6.55484      8.37726        -0.026836     -0.019624      0.018671
Ti	      2.18289      2.13510      0.14558         0.038011     -0.060120      0.062558
Ti	      4.48511      6.50196     10.27583         0.360275      0.017423     -0.066996
Ti	      6.52088      4.30083      6.39994        -0.000545     -0.112804      0.358300
Ti	      4.31611      6.54412      6.29035        -0.091913      0.092400     -0.043766
Mn	     10.77570      4.47340      6.35019         0.032711     -0.014786     -0.029114
Mn	      6.50854      8.60230      6.34496        -0.029908      0.033860     -0.023931
Mn	      8.60875      8.46553      8.46275         0.042740      0.021513      0.032448
V	      2.13726      2.16505      4.07132        -0.024052      0.089222     -0.159501
V	      4.34754      4.27734      4.06837         0.002985     -0.004339     -0.010786
O	      2.16306      2.17971      1.98337        -0.005779      0.018408     -0.076987
O	      4.37214      4.31099      2.15738        -0.004128     -0.004221      0.062046
O	      4.18610      2.06999      4.13438         0.104795     -0.080195      0.014525
O	      6.47356      4.43072      4.19672         0.028156      0.014058      0.083856
O	      6.56691      2.34725      6.21619         0.043381      0.145341      0.024698
O	      8.50996      4.33400      6.15490        -0.111623     -0.003847     -0.021625
O	      2.33247      4.17005      4.21140        -0.016916     -0.020549     -0.045665
O	      4.43711      6.42655      4.27735        -0.063292     -0.081939      0.113467
O	      4.48157      4.39839      6.15389         0.082754      0.041567     -0.038692
O	      6.37371      6.35932      6.19941         0.011428     -0.044110     -0.051227
O	      6.48496      4.35674      8.21469         0.011404      0.004950     -0.295842
O	      8.65669      6.46106      8.35702         0.012505     -0.034734      0.012058
O	      2.29566      6.53956      6.18964         0.053970      0.086882      0.004520
O	      4.30039      8.52312      6.25556        -0.056492     -0.081362     -0.033930
O	      4.34108      6.44592      8.30885        -0.007873      0.035424      0.054013
O	      6.52426      8.62332      8.35236        -0.031770      0.002750      0.003750
O	      6.31824      6.51763     10.45689        -0.369546      0.010277     -0.102292
O	      8.68982      8.88201     10.55211        -0.007735      0.142648      0.048063
