# total energy = -248.92427578 eV
 
CRYSTAL
PRIMVEC
0.014047 6.251212 6.206994 
6.407094 -0.005022 6.226320 
4.268354 4.176740 -0.000054 
PRIMCOORD
36 1
Li	      8.54163      8.33621     12.40400         0.028092      0.019387      0.009390
Li	      4.42597      6.26959     10.42212         0.032052     -0.000186      0.064124
Li	      6.35048      2.06447      4.22881         0.013176      0.017155     -0.003982
Li	      0.04494      2.05994      2.03407        -0.006343      0.011088      0.030308
Li	      6.36278      6.27853      4.22531        -0.027208      0.038616     -0.030319
Li	      4.31793      2.02615      6.16221        -0.004341      0.006974      0.011307
Li	      4.29878      8.31844      4.27161        -0.003552     -0.054285      0.017915
Li	      6.31099      8.31527      6.18415        -0.000206     -0.016742     -0.065362
Li	      4.31357      6.30188      6.13721        -0.006049     -0.004253     -0.056908
Ti	      4.22521      8.31151      8.19812        -0.187222      0.117010     -0.299832
Ti	      4.18200      4.15502      4.26168        -0.231819      0.049387     -0.018192
Ti	      6.54204      4.10280      6.12507         0.303475     -0.209298     -0.097102
Ti	      8.54477      8.34190      8.36976         0.064392     -0.167140      0.287411
V	      2.13093      6.26052      4.26593        -0.000093     -0.006467     -0.059545
V	      6.38969      6.29032      8.24960         0.069197     -0.041015     -0.031762
Cr	      2.14744      6.26955      8.24579        -0.034997      0.149460      0.092316
Co	      2.14639      4.13967      2.04997         0.023937     -0.058973      0.013121
Cu	      6.37877      6.33812     12.25977         0.031151      0.012461     -0.078438
O	      2.22272      2.04316      2.09900         0.214441     -0.164405     -0.014974
O	      4.37677      4.12115      2.20248         0.016486     -0.094200      0.125856
O	      4.29454      2.20136      4.04405         0.007897      0.100874     -0.063322
O	      6.28526      4.20166      4.15808        -0.011875     -0.021250      0.073887
O	      6.41049      2.24476      6.23336         0.003440      0.206532     -0.013603
O	      8.43101      4.17911      6.22598        -0.300276      0.023659     -0.068961
O	      2.23391      4.16085      4.14671         0.229061      0.006816      0.072758
O	      4.14573      6.12518      4.12300         0.044442     -0.177808      0.042851
O	      4.35173      4.14484      6.20143         0.039693      0.001448     -0.043056
O	      6.38934      6.13888      6.28244        -0.003812     -0.064080      0.027322
O	      6.31712      4.23005      8.19085        -0.152567     -0.019938     -0.025701
O	      8.50019      6.30775      8.35933        -0.013180      0.253662     -0.011388
O	      2.18900      6.26527      6.25619        -0.024747     -0.001747      0.149419
O	      4.31307      8.31617      6.35149        -0.008912      0.067162      0.346115
O	      4.21688      6.23639      8.33094         0.002499     -0.041700     -0.027024
O	      6.45959      8.36616      8.24593         0.022622      0.016185      0.022814
O	      6.52132      6.23444     10.20250        -0.099167      0.001914      0.066224
O	      8.58479      8.33476     10.23742        -0.029687      0.043700     -0.443667
