# total energy = -247.30415718 eV
 
CRYSTAL
PRIMVEC
0.038308 6.317025 6.292904 
6.285532 0.029212 6.302132 
4.200096 4.227243 0.009819 
PRIMCOORD
36 1
Li	      4.30049     10.49638      6.32060         0.009997     -0.022128     -0.019574
Li	      2.23729      6.24641      8.34766         0.029213     -0.002738      0.019197
Li	      4.35027      8.28550      8.30984         0.012780     -0.041107      0.024739
Li	      4.17787      4.26882      4.44120        -0.017391      0.005481     -0.007374
Li	      4.12867      2.36284      6.29652        -0.053946     -0.013662      0.014925
Li	      6.10532      4.27187      6.31999         0.017986      0.031572      0.014736
Li	      2.23748      4.24352      6.39601        -0.059347      0.029876      0.021378
Li	      4.22300      6.18664      6.48005         0.018268      0.037861      0.029704
Li	      6.19601      6.41616      8.28690         0.004812     -0.013660      0.012095
Ti	      2.30303      8.37951      6.32171         0.299912     -0.027279      0.028870
Ti	      6.14098      2.20282      4.15035        -0.166840      0.003741     -0.220881
Ti	      6.26332      2.04235      8.25632        -0.036122     -0.205624     -0.061961
Ti	      6.35217      6.25415      4.35430         0.055969     -0.025316      0.529272
V	      6.30124      4.26623     10.51216         0.011133      0.037239      0.016503
V	      8.38281      4.25289      8.29384         0.053153      0.005299      0.061318
Cr	      2.13558      6.28760      4.22743         0.120220     -0.051304      0.037715
Co	      4.23916      6.35634     10.46291        -0.049313      0.114070      0.082129
Ni	      4.19445      4.32210      8.28407         0.007753     -0.044636      0.050634
O	      2.03660      2.11780      2.05338        -0.040069     -0.076227     -0.045517
O	      4.11501      4.37272      2.04713         0.032136      0.130565     -0.027295
O	      4.18654      2.16320      4.20539         0.059458     -0.012097     -0.011414
O	      6.28789      4.23570      4.23041        -0.084732      0.026934     -0.023661
O	      6.33435      2.14964      6.32564         0.053902     -0.016738     -0.001212
O	      8.40033      4.08310      6.31704         0.009423     -0.049784     -0.082255
O	      2.10230      4.23538      4.06319         0.112516     -0.032404      0.030368
O	      4.24145      6.34726      4.05560        -0.001638     -0.094995     -0.043636
O	      4.16532      4.25169      6.34893         0.009096     -0.011400     -0.188495
O	      6.31052      6.36580      6.13585         0.006526     -0.045217     -0.488065
O	      6.37124      4.12468      8.39747        -0.017810     -0.017947     -0.106113
O	      8.48507      6.34300      8.47173         0.047992      0.026104      0.007365
O	      2.14795      6.45179      6.21209        -0.020636      0.064662     -0.035602
O	      4.17242      8.44424      6.32020        -0.250848     -0.010052      0.096070
O	      4.26444      6.29007      8.48794        -0.023820      0.204132     -0.004423
O	      6.33406      8.47571      8.60118        -0.112445      0.001028      0.251613
O	      6.41420      6.44147     10.53941         0.013891      0.044546     -0.018945
O	      8.36835      8.35316     10.57419        -0.051180      0.051205      0.057790
