# total energy = -250.68269765 eV
 
CRYSTAL
PRIMVEC
-0.026526 6.317776 6.329373 
6.275430 0.004781 6.297983 
4.193153 4.200557 -0.006281 
PRIMCOORD
36 1
Li	      4.22346      4.20653      0.15296         0.022219     -0.015372     -0.078741
Li	      2.07471      2.07353      0.16173        -0.022542     -0.005908      0.042431
Li	      6.18658      4.25531      2.12648         0.030965     -0.030681      0.031127
Li	      4.14178      2.17504      2.08188         0.003015     -0.053072     -0.009206
Li	      6.24920      2.16337      4.12788        -0.009032      0.043368     -0.033328
Li	      4.29304      6.10927      2.05551         0.067566      0.007386     -0.033509
Li	      4.25610      4.16826      3.99549         0.070437     -0.048869      0.002539
Li	      4.11128      6.35282      6.47956        -0.048550      0.052942      0.119440
Li	      4.10556      4.33195      8.40317        -0.057051      0.045510     -0.002494
Ti	      4.31465      2.11205      6.33087         0.488813     -0.024979     -0.016305
Ti	     10.41399      8.36414     10.44436        -0.163161      0.062118     -0.162304
Ti	      8.41542      6.39208     10.48537        -0.000631      0.107686      0.058843
Ti	      6.22539      8.45761      6.42988        -0.124066      0.124377      0.629076
V	      6.19735      4.23356      6.34810         0.005037     -0.032129      0.016474
V	      2.04051      2.09112      4.11899         0.031037     -0.091320     -0.186076
Cr	      4.16730      6.30824     10.49647         0.010409     -0.082830     -0.015755
Co	      2.25048      4.14700      2.08512         0.001413     -0.065174     -0.099931
Co	      6.17926      6.35373      8.42037        -0.012224      0.026749      0.030688
O	      2.07839      2.13810      2.17847         0.039595     -0.056694      0.070214
O	      4.18410      4.17782      2.08334        -0.054207     -0.017913      0.005928
O	      4.13460      2.00811      4.33384         0.132522      0.055699      0.128969
O	      6.36959      4.29563      4.23102         0.032395     -0.071252     -0.038271
O	      6.17056      2.13475      6.30683        -0.444145     -0.061584      0.024884
O	      8.32173      4.31673      6.22686         0.074693      0.125245      0.003830
O	      2.03097      4.23746      4.27598        -0.048992     -0.004859      0.048030
O	      4.12920      6.32801      4.17630        -0.115236      0.094241     -0.067824
O	      4.07675      4.08096      6.31492        -0.139774     -0.046255      0.014207
O	      6.31563      6.39376      6.21187         0.035803      0.097708      0.118475
O	      6.29114      4.23647      8.50762        -0.025821      0.011821      0.284211
O	      8.30327      6.29886      8.41388         0.013682      0.043464     -0.006659
O	      2.12227      6.18877      6.14423        -0.047787     -0.137937     -0.136875
O	      4.31262      8.36494      6.17058         0.188623      0.020818     -0.135957
O	      4.20395      6.31353      8.52315        -0.006927      0.032813      0.046050
O	      6.25821      8.42212      8.28489        -0.000606      0.019072     -0.555070
O	      6.29610      6.24014     10.54474         0.007074     -0.037687     -0.039912
O	      8.38612      8.40426     10.54678         0.065452     -0.086501     -0.057200
