# total energy = -246.82931050 eV
 
CRYSTAL
PRIMVEC
0.015663 6.181884 6.386619 
6.318815 0.017378 6.385314 
4.215410 4.123011 0.008520 
PRIMCOORD
36 1
Li	      2.11521      2.04911      0.08651         0.011676     -0.047163     -0.006908
Li	      2.19548      0.12264      2.13656         0.000608      0.021438      0.048793
Li	      4.16543      8.11804      8.51722         0.000488     -0.049929      0.022159
Li	      4.18403      6.24772     10.54236        -0.039570     -0.001008     -0.063369
Li	      4.21622      6.16404      2.20155        -0.018633      0.055741      0.036367
Li	      6.30124      6.19170      4.28293         0.021664     -0.007273      0.020587
Li	      8.36216      6.20892      6.43372         0.015905      0.000965     -0.024396
Li	      2.21116      6.18340      4.22375        -0.008823      0.039459      0.004604
Li	      6.30065      6.21470      8.38223        -0.046211     -0.048024     -0.017326
Ti	      0.16097      6.10824      6.44022         0.312177     -0.103017      0.010068
Ti	      6.22852      2.03835      4.27517        -0.088571     -0.000520     -0.141876
Ti	      2.07590      4.00792      2.12570        -0.069608     -0.342896      0.233717
Ti	      8.36374      8.21250      8.58013        -0.054310      0.038377      0.048420
V	      6.32914      4.16236     10.64563        -0.024218      0.001476     -0.035773
V	      6.39829      4.17551      6.37275         0.067793     -0.064832     -0.009541
Cr	      4.20937      4.17313      4.24738         0.004819      0.008269     -0.112718
Cu	      6.33867      8.16416      6.49469        -0.035732      0.089792      0.146557
Ni	      4.23080      6.20759      6.39920        -0.142139      0.095275      0.010833
O	      2.09363      2.18404      2.14761        -0.001315      0.400718     -0.006233
O	      4.10725      4.16447      2.09044        -0.029744     -0.027163     -0.030920
O	      4.34532      2.14336      4.19930         0.189674     -0.022093      0.045243
O	      6.24809      4.05458      4.30492        -0.008672     -0.081439     -0.146963
O	      6.39592      2.05787      6.24935        -0.065921     -0.069728     -0.038646
O	      8.46358      4.17976      6.52274        -0.079912     -0.075722      0.078691
O	      2.18159      4.18142      4.07753         0.079766     -0.024021     -0.107808
O	      4.20255      6.15505      4.35384         0.043656     -0.083289     -0.175823
O	      4.36550      4.11876      6.31894         0.078855     -0.143918     -0.034416
O	      6.32685      6.10139      6.36251         0.057083      0.155912     -0.069045
O	      6.36477      4.12909      8.49082         0.095575      0.065785      0.037649
O	      8.44275      6.30009      8.48457         0.008650      0.021857     -0.010079
O	      2.00253      6.19534      6.45787        -0.291374     -0.071015     -0.011910
O	      4.10759      8.31536      6.38264        -0.049499      0.206247      0.084075
O	      4.22190      6.03457      8.42819         0.032516     -0.112766      0.141849
O	      6.43734      8.21262      8.69477         0.107213     -0.010193      0.074598
O	      6.28575      6.26594     10.81880         0.024522      0.198098      0.100177
O	      8.38814      8.28391     10.50924        -0.098387     -0.013401     -0.100635
