# total energy = -136.10377835 eV
 
CRYSTAL
PRIMVEC
2.088256 2.088076 0.000062 
-2.101170 2.101238 7.843888 
6.315082 -6.314575 0.005567 
PRIMCOORD
24 1
Li	      1.03130      1.06086      0.96737        -0.010515      0.006640      0.018993
Li	      1.06306      1.02539      4.91593         0.010910     -0.007240     -0.019243
Li	      3.18920     -1.10094      0.97222        -0.003775      0.007820      0.008747
Li	      3.18154     -1.09194      4.92956        -0.007176      0.009216     -0.026706
Li	      5.22783     -3.13653      0.95979         0.008440     -0.007490      0.027156
Li	      5.21977     -3.12654      4.91672         0.005440     -0.010525     -0.008581
Mn	      5.24467     -5.24140      2.93832         0.054030     -0.054837     -0.057570
Mn	     -1.04752      1.04991      6.86353        -0.002849      0.003326      0.001551
Mn	      1.07631     -1.07488      2.95094        -0.056249      0.057332      0.052821
Ni	      1.10250     -1.09991      6.86916        -0.044992      0.044471     -0.082747
Ni	      3.16047     -3.15801      2.94438         0.000853     -0.000859      0.000891
Ni	      3.11769     -3.11442      6.86395         0.044828     -0.047029      0.079126
O	      1.04715      1.04283      2.94181        -0.001313      0.001977     -0.003296
O	      0.94929      1.14078      6.86305        -0.085059      0.085053      0.017026
O	      3.08517     -0.99564      2.93163        -0.007881      0.008709     -0.005813
O	      3.15429     -1.06320      6.86662        -0.002637      0.000909     -0.003270
O	      5.32399     -3.23228      2.95751         0.009828     -0.011264      0.008443
O	      5.35895     -3.26740      6.86965         0.085633     -0.086911     -0.010784
O	      5.27499     -5.27134      1.06359        -0.002157      0.002564      0.142961
O	     -1.02985      1.03205      4.92356        -0.003086      0.003064      0.054678
O	      1.03603     -1.03343      0.95966         0.006802     -0.008895     -0.054833
O	      1.04599     -1.04528      4.82550         0.001691      0.001880     -0.140570
O	      3.14289     -3.14144      1.00866         0.000533      0.002128      0.000652
O	      3.17821     -3.17444      4.88039        -0.001302     -0.000038      0.000369
