# total energy = -246.00238163 eV
 
CRYSTAL
PRIMVEC
0.001832 6.255616 6.435780 
6.297836 -0.008291 6.446002 
4.196556 4.175082 -0.003119 
PRIMCOORD
36 1
Li	      4.24122      4.17637      0.11030        -0.014282     -0.018497      0.006266
Li	      2.09691      1.98638      0.12950        -0.005482     -0.041265     -0.104307
Li	      2.02839      0.12719      2.07304         0.029554     -0.105020     -0.074739
Li	      4.03492      2.16608      2.10846         0.107532     -0.031421     -0.042682
Li	      6.34126      8.29881     10.75130         0.026368     -0.002321      0.038686
Li	      2.21841      4.01583      2.13083         0.006239      0.084393     -0.043487
Li	      8.32033      6.29275     10.79588        -0.051701      0.012807      0.047916
Li	      4.14970      6.34702      6.47205        -0.034899     -0.003061      0.032166
Li	      6.31434      6.27839      8.60318         0.010921      0.020539      0.025311
Ti	      4.23638      6.31356     10.62084         0.161205      0.015297     -0.260882
Ti	      8.44535      6.18676      6.51659         0.167210     -0.111484      0.197987
Ti	      4.23787      8.22586      4.27830        -0.021036     -0.200597     -0.005285
Ti	      2.01782      4.32769      6.50256        -0.235134      0.410815      0.184921
V	      4.17806      4.17228      4.23054         0.044498     -0.011344     -0.066511
V	      8.37494      8.34477      8.60826        -0.054898      0.016686      0.005534
Cr	      6.32959      4.19152      6.46045        -0.049290     -0.057505      0.054135
Cu	      0.15124      1.94140      2.10001        -0.126861     -0.069371     -0.046642
Cu	      2.02216      2.03984      4.00913        -0.111946     -0.069792     -0.142076
O	      2.10946      2.09597      2.01748         0.162420      0.025901      0.010237
O	      4.19934      4.17172      2.25393        -0.031342     -0.149636      0.011608
O	      4.30204      1.99879      4.38326        -0.010416     -0.076368      0.110867
O	      6.38307      4.10945      4.47201         0.104806      0.079114      0.076932
O	      6.16074      2.18789      6.36836        -0.126904      0.071766     -0.073461
O	      8.33486      4.26275      6.37029        -0.005895      0.186589     -0.009871
O	      2.00755      4.25602      4.40448        -0.007026      0.000721      0.146403
O	      4.06198      6.35860      4.40386        -0.010254      0.232519      0.168735
O	      4.22755      4.13350      6.44125        -0.007490     -0.034347      0.002603
O	      6.45435      6.25458      6.46463         0.087128      0.000936      0.010048
O	      6.21058      4.18010      8.61320         0.042082      0.124010     -0.018781
O	      8.41686      6.33546      8.44167        -0.081656     -0.002198     -0.198403
O	      2.09586      6.13962      6.46518        -0.022461     -0.464917     -0.038489
O	      4.32800      8.33046      6.30915         0.203859      0.007440     -0.054155
O	      4.17265      6.19130      8.73485         0.022445      0.066026      0.289684
O	      6.39588      8.30452      8.40958        -0.045936      0.034546     -0.195769
O	      6.15343      6.12072     10.74390        -0.167270     -0.000382     -0.047380
O	      8.48316      8.41278     10.69144         0.045912      0.059422      0.002880
