# total energy = -252.14515014 eV
 
CRYSTAL
PRIMVEC
0.005529 6.264161 6.342402 
6.206643 0.013147 6.334651 
4.152842 4.185920 -0.006080 
PRIMCOORD
36 1
Li	      6.23458     10.42831      8.46321         0.074606     -0.049644      0.039754
Li	      2.05601      4.17652      2.14088         0.013473      0.013282      0.044737
Li	      2.06765      2.12489      4.24232        -0.001048      0.000396      0.019453
Li	      8.25341      6.29453      6.34847        -0.002916     -0.008297      0.019975
Li	      6.21692      4.20900      6.33370        -0.005581     -0.008466     -0.043717
Li	      0.06920      4.16268      4.19826         0.042626      0.015824      0.002481
Li	      8.27612      6.27316     10.54251        -0.028874      0.020072     -0.006813
Li	      2.09689      4.16055      6.31379         0.010462     -0.029677     -0.020641
Li	      8.28020      8.35484      8.45081        -0.032983      0.034730      0.043100
Ti	      0.05375      6.27539      6.35455         0.061466     -0.116092     -0.033948
Ti	      6.23179      2.19012      8.46150         0.036008      0.087270      0.075780
Ti	      4.06022      4.20231      4.33602        -0.333201      0.029404      0.298553
Ti	      6.35030      6.22707      8.35525         0.022126     -0.019353     -0.326886
V	      8.22410      4.17348      4.21892        -0.041178      0.118281     -0.090076
V	      4.10980      6.25917      6.27597         0.013719     -0.019976      0.045744
Cr	      4.12823      2.11611      2.11418        -0.021680     -0.048694     -0.112243
Fe	      8.27245      8.38317     12.60998         0.092935     -0.079608      0.104647
Co	      6.23102      2.11238      4.26524         0.013826     -0.000040     -0.033058
O	      2.00025      2.10311      2.05855        -0.031934      0.025588      0.038780
O	      4.15584      4.18233      2.08563        -0.027948      0.066786      0.002433
O	      4.10774      2.10684      4.13058         0.019208      0.044388     -0.059240
O	      6.20501      4.18283      4.20767        -0.142422      0.038427     -0.007387
O	      6.14222      2.08176      6.44911        -0.097366     -0.045359      0.010871
O	      8.42471      4.23507      6.25770         0.093695      0.120333      0.118965
O	      2.23296      4.16722      4.21035         0.340646     -0.002340      0.024629
O	      4.16506      6.22761      4.13590         0.017733     -0.087724     -0.136394
O	      4.14280      4.16919      6.21083        -0.012154     -0.016702     -0.282445
O	      6.22434      6.24405      6.50421         0.022594     -0.014627      0.304475
O	      6.22257      4.17134      8.46429         0.023759     -0.004239     -0.002485
O	      8.27027      6.29864      8.46815        -0.038657     -0.060072     -0.002651
O	      1.98029      6.23995      6.31682        -0.212267     -0.023783     -0.002431
O	      4.19440      8.40642      6.44512         0.078747      0.040220     -0.030165
O	      4.20639      6.35233      8.44701         0.040035      0.059424      0.011448
O	      6.13653      8.21599      8.49830         0.011510     -0.022033      0.011084
O	      6.15255      6.26504     10.58369         0.101142      0.015429      0.053349
O	      8.31730      8.47174     10.58108        -0.100109     -0.073130     -0.079677
