# total energy = -250.19481537 eV
 
CRYSTAL
PRIMVEC
-0.007759 6.384053 6.297990 
6.369677 -0.020593 6.310808 
4.229366 4.247646 0.003200 
PRIMCOORD
36 1
Li	      8.52105     10.56850     10.52158         0.076635     -0.037407      0.024449
Li	      6.40997      8.41439     10.45921         0.036340     -0.089487     -0.032167
Li	      8.46079      4.26308      8.38241        -0.025727      0.032710     -0.021809
Li	      8.41164      6.45304      6.36567        -0.025131      0.005145     -0.008776
Li	      6.27150      4.30480      6.32177        -0.017050      0.025086     -0.032353
Li	      8.35683      6.36870     10.50092        -0.050657      0.000669      0.031207
Li	      2.28647      4.21214      6.31882        -0.009688     -0.012540     -0.020738
Li	      4.24824      6.19015      6.38020         0.004788     -0.023344      0.009247
Li	      6.40516      6.34209      8.40993         0.032053     -0.082178      0.023146
Ti	      8.45938      2.18143      6.21642        -0.032568      0.140851     -0.329547
Ti	      4.32539      8.36005      8.38351         0.319208     -0.347068     -0.060102
Ti	     10.43051      6.50601      8.39952        -0.473339      0.255764     -0.051965
Ti	      6.35812      6.38712      4.37471         0.061596      0.012776      0.561778
V	      6.36252      0.01397      6.28672        -0.008166      0.013523     -0.126105
V	      4.23657      8.49170      4.21747         0.036156     -0.020153      0.064826
Cr	      4.20854      4.25406      4.23759        -0.014775      0.020890     -0.006486
Fe	      2.16854      6.35747      8.40498        -0.008632     -0.024017     -0.007814
Cu	      4.17220      4.23421      8.27391        -0.001891     -0.102034     -0.038855
O	      2.14910      2.15272      2.06685        -0.001190      0.071078      0.040729
O	      4.21069      4.27840      2.09161        -0.023975      0.059270      0.047771
O	      4.11883      2.21257      4.08103        -0.106624     -0.022061     -0.088676
O	      6.25419      4.38506      4.15565        -0.023861      0.166987      0.066101
O	      6.47085      2.10771      6.41883         0.087427      0.046839      0.105986
O	      8.57300      4.10639      6.30958        -0.032096     -0.223301     -0.002824
O	      2.15832      4.11104      4.21228         0.102385     -0.159454     -0.008749
O	      4.33129      6.32027      4.08769         0.098377     -0.083584     -0.059452
O	      4.23239      4.24881      6.16430         0.032450     -0.048107      0.110638
O	      6.36745      6.34481      6.17746        -0.020523      0.048966     -0.474101
O	      6.43562      4.12813      8.42830         0.018330     -0.154061     -0.097475
O	      8.61681      6.30119      8.41582         0.304180      0.083585      0.004778
O	      2.03508      6.53241      6.35217        -0.013765      0.109377     -0.030960
O	      4.12592      8.54623      6.38509        -0.031103     -0.047833      0.185548
O	      4.28314      6.52096      8.42114         0.122478      0.312782      0.022856
O	      6.17871      8.48999      8.41988        -0.273903     -0.101777     -0.008924
O	      6.38443      6.29272     10.64891        -0.043429      0.159881     -0.045653
O	      8.47018      8.48431     10.64526        -0.094309      0.012231      0.254469
