# total energy = -249.18653412 eV
 
CRYSTAL
PRIMVEC
-0.009109 6.346953 6.288183 
6.352850 0.004157 6.274950 
4.250150 4.237339 -0.012007 
PRIMCOORD
36 1
Li	      6.26602      2.21116      4.21236        -0.004049      0.015460      0.014306
Li	     10.53826      6.40245      8.37020        -0.042388      0.037258      0.031454
Li	      8.45896      4.25453      8.36586        -0.006097      0.013452     -0.009672
Li	      6.40720      6.33594      4.25133        -0.040041      0.007172      0.036233
Li	      4.25656      4.17399      4.38298        -0.031164     -0.006082     -0.047075
Li	      4.25463      2.27950      6.19177        -0.018125     -0.033185      0.025778
Li	      6.18204      4.20818      6.18862         0.027121     -0.014190     -0.046004
Li	      2.32254      4.19503      6.22122         0.019063     -0.041498     -0.033871
Li	      4.29054      6.11317      6.20375         0.042487     -0.025403     -0.047474
Ti	      6.35987      0.16425      6.32005        -0.168801      0.460764      0.030042
Ti	      6.28496      4.26420      2.10852         0.239944      0.004362      0.088957
Ti	      4.35645      8.33959      4.24433         0.325741     -0.485179     -0.074365
Ti	      6.45165      6.34582      8.19157         0.071893     -0.063271     -0.810864
V	      2.12083      2.10716      0.00528         0.163099      0.062233      0.079329
V	      4.23409      2.12662      2.10969        -0.146635     -0.202943     -0.009084
Cr	      8.45564      4.26935      4.19975         0.085347     -0.052880     -0.051607
Fe	      2.12824      6.31138      4.18402         0.196772      0.046998     -0.037575
Ni	      4.24317      4.23302      8.24887         0.009667      0.016763      0.171399
O	      2.18047      1.99051      2.08820         0.012940      0.020726      0.179765
O	      4.27338      4.20381      2.05955         0.105816     -0.004997     -0.268381
O	      4.23053      2.02054      4.07416         0.010545     -0.098168     -0.167291
O	      6.45246      4.21231      4.05217        -0.017385      0.032364     -0.080237
O	      6.37368      2.03962      6.30358        -0.022506     -0.411050     -0.043649
O	      8.60461      4.20932      6.19941         0.050270      0.045881     -0.000620
O	      1.97650      4.27421      4.19018        -0.386800     -0.123801      0.052163
O	      4.23466      6.50252      4.16452         0.068808      0.509710      0.050286
O	      4.25029      4.22290      6.29437        -0.024496     -0.024394     -0.192672
O	      6.33499      6.32870      6.40136         0.052888      0.011590      0.687257
O	      6.33790      4.40183      8.51530         0.004202      0.090971      0.103530
O	      8.33246      6.40722      8.36509        -0.261231     -0.039697     -0.035753
O	      2.05721      6.32645      6.34629        -0.177097     -0.041574      0.222589
O	      4.23886      8.57723      6.25132         0.018863      0.078922      0.000611
O	      4.23197      6.36226      8.43702        -0.014904     -0.010261      0.090476
O	      6.28526      8.44567      8.36051        -0.036927      0.017197      0.034742
O	      6.26843      6.30537     10.52039        -0.129720      0.000276      0.014903
O	      8.56715      8.50407     10.42611         0.022901      0.206474      0.042377
