# total energy = -252.69155936 eV
 
CRYSTAL
PRIMVEC
0.015114 6.285325 6.328807 
6.324297 -0.004715 6.348702 
4.204291 4.191590 0.008774 
PRIMCOORD
36 1
Li	      2.14121      8.29088      6.38653        -0.001678     -0.003835      0.037423
Li	      2.16121      6.33169      8.33676         0.041044      0.021343      0.058418
Li	      4.19732      8.31272      8.37197         0.006037     -0.072530     -0.007749
Li	      8.40022      4.22602      4.26606        -0.016737      0.028661     -0.041299
Li	      6.34808      2.07044      8.40993         0.022361     -0.008758      0.016752
Li	      6.35277      4.18351      6.32382         0.003418      0.012629     -0.038103
Li	      2.12047      6.28191      4.37748         0.011536     -0.008716      0.044436
Li	      2.10181      4.25443      6.37036        -0.001244     -0.033371      0.046808
Li	      4.07931      6.34034      6.37073        -0.080562      0.026976      0.010206
Ti	      6.38284      8.45012     10.53475         0.062436      0.286437     -0.145944
Ti	      2.13569      4.10676      2.09513         0.152521     -0.314811     -0.049783
Ti	      4.16406      8.30676      4.26182        -0.199223     -0.249081      0.263244
Ti	      4.24414      4.28633      8.40742        -0.164754      0.263353     -0.014494
V	      4.16814      4.25404      4.24133         0.134116      0.061727      0.058606
V	      6.30453      6.25796      8.43255        -0.064253      0.039909     -0.065066
Cr	      4.25192      2.08284      6.34314        -0.120404      0.075690     -0.008994
Fe	      0.17078      6.25329      6.35791        -0.062389      0.000854     -0.022726
Fe	      6.31353      6.22695      4.29706         0.012654     -0.055274      0.009834
O	      2.11149      2.22788      2.20451        -0.010114      0.367929     -0.128910
O	      4.08859      4.21217      2.09350        -0.216516     -0.004846     -0.038572
O	      4.33100      2.09979      4.30343         0.126597     -0.032926      0.065565
O	      6.31846      4.05987      4.23760         0.051497     -0.289400     -0.012033
O	      6.29371      2.01004      6.22430        -0.076388      0.035223     -0.039246
O	      8.47939      4.25034      6.49010         0.052052     -0.029612      0.160109
O	      2.00917      4.27036      4.12995        -0.121546      0.018678     -0.248561
O	      4.16035      6.40240      4.24441        -0.032738      0.269021     -0.000641
O	      4.24511      4.11077      6.41143         0.037893     -0.047940      0.096135
O	      6.45518      6.26438      6.31320         0.113362      0.009941      0.046765
O	      6.33345      4.14823      8.46882         0.128397     -0.048920      0.031761
O	      8.41883      6.30491      8.37392         0.112796     -0.053023     -0.023334
O	      2.03955      6.30031      6.38035         0.001937     -0.018056     -0.025278
O	      4.19913      8.45745      6.19555        -0.019458     -0.054910     -0.088179
O	      4.21298      6.17557      8.41899         0.035687     -0.276297      0.009189
O	      6.40171      8.34367      8.53243         0.036115      0.096326      0.006718
O	      6.30477      6.27119     10.58465        -0.007179     -0.022572      0.089771
O	      8.42090      8.36597     10.50822         0.052728      0.010181     -0.052829
