# total energy = -245.39790759 eV
 
CRYSTAL
PRIMVEC
0.002616 6.306351 6.308727 
6.314452 -0.046671 6.358102 
4.168557 4.195454 0.010473 
PRIMCOORD
36 1
Li	      2.18425      8.25325      6.36558         0.021643     -0.002930      0.048377
Li	      2.01347      0.06617      2.02914        -0.029358      0.062305     -0.097494
Li	      6.26828      2.11132      4.25279        -0.032639      0.043924     -0.001157
Li	      4.22712      6.19523      2.26502         0.062808     -0.034785     -0.028236
Li	      2.14087      4.18651      2.26649         0.029470     -0.067781      0.054029
Li	      4.08305      4.34531      4.13016         0.032559     -0.044216     -0.042773
Li	      4.25963      8.23123      4.31609         0.022569      0.007084      0.007337
Li	      2.29957      6.17349      4.27088         0.003682     -0.052786     -0.062042
Li	      4.03110      6.38797      6.13943        -0.035771      0.036603      0.002479
Ti	      8.34605      4.15557      4.28013         0.013848     -0.149599      0.096831
Ti	      6.32826      4.04828      6.33020         0.001619     -0.224397      0.079310
Ti	      8.33102      8.34560      8.47429         0.034942     -0.099463      0.158221
Ti	      6.30021      6.27308      8.55096         0.122512     -0.022491      0.115328
V	      0.06354      6.32584      6.29093         0.057179     -0.004924      0.015486
V	      4.13696      2.12965      2.10086        -0.057034      0.086159     -0.107026
Cr	      6.18875      6.32486      4.22120        -0.114007      0.167413     -0.077682
Ni	      4.22339      2.09591      6.34109         0.042132     -0.025963      0.024835
Ni	      2.08108      4.25510      6.22178        -0.012627     -0.007050      0.041701
O	      2.19442      2.06749      2.22705         0.042253     -0.032400      0.077204
O	      4.18555      4.10496      1.98766        -0.020996     -0.068536     -0.075753
O	      4.15072      1.96381      4.24574         0.005471     -0.143753     -0.025837
O	      6.31717      4.22216      4.34975         0.068750     -0.039575      0.109346
O	      6.29320      2.15059      6.33856         0.093753      0.307122     -0.013716
O	      8.37572      4.18426      6.31111        -0.146074     -0.049243     -0.128243
O	      2.12045      4.09653      4.24437         0.028153     -0.112474     -0.122199
O	      4.25520      6.28697      4.20406         0.084848     -0.043573      0.033859
O	      4.27540      4.16332      6.45464         0.167529      0.091129      0.115057
O	      6.33886      6.19948      6.39655        -0.100084     -0.112588      0.056666
O	      6.23089      4.26849      8.34381        -0.067344      0.096678     -0.098806
O	      8.31678      6.35013      8.44979        -0.141538      0.154323      0.071803
O	      2.00310      6.29227      6.26677         0.011431      0.106399     -0.010265
O	      4.19730      8.45127      6.35775        -0.139671      0.033760      0.007337
O	      4.22806      6.28175      8.49733         0.018141     -0.089379      0.068019
O	      6.28452      8.31016      8.38762         0.099806     -0.023952      0.110276
O	      6.24535      6.30707     10.50398        -0.125273      0.038215     -0.216555
O	      8.36029      8.51872     10.40006        -0.042682      0.220746     -0.185717
