# total energy = -252.87249667 eV
 
CRYSTAL
PRIMVEC
-0.062143 6.263856 6.219029 
6.443053 -0.034427 6.191005 
4.287639 4.149674 -0.015377 
PRIMCOORD
36 1
Li	      2.21102      2.05830      0.07831         0.067172      0.000668     -0.012281
Li	      4.37336      8.22869      8.27076        -0.035455      0.073251      0.027530
Li	      4.22640      6.23000     10.22593        -0.068009     -0.018402      0.027135
Li	      6.38100      8.31421     10.21083         0.007857      0.049668      0.096209
Li	      0.10857      2.08651      1.99257         0.030564     -0.043509     -0.006813
Li	      2.10207      4.03610      1.99818        -0.005614     -0.025177     -0.018933
Li	      6.37222      8.30907      6.40840         0.014155      0.050188     -0.041844
Li	      8.32795      8.40474      8.30394        -0.046319      0.038248      0.015272
Li	      6.25609      6.47696      8.28896         0.029000     -0.037968      0.031458
Ti	      4.24273      4.12335      4.02137         0.100217     -0.114907     -0.383254
Ti	      8.58043      6.16224      6.32968         0.132012     -0.244149      0.096510
Ti	      6.33538      4.18357     10.19895        -0.109668      0.134202     -0.313604
Ti	      8.56745      6.20354     10.24748        -0.034604      0.062675      0.018017
V	      6.39969      4.10944      6.29801         0.079409     -0.100453      0.006554
V	      2.13826      2.09275      4.05390         0.006278     -0.134901     -0.047079
Cr	      4.26506     10.35233      6.28723         0.021018      0.045330      0.131046
Cr	      4.26655      6.27434      6.28033         0.047115      0.011753      0.132031
Co	      2.17448      6.20102      8.28817        -0.127821      0.001155      0.236006
O	      2.11514      2.01661      2.12601         0.124765     -0.255822     -0.136110
O	      4.27147      4.14900      2.15134         0.050809     -0.062737      0.232401
O	      4.20051      2.16899      4.26557        -0.059254      0.113687      0.009773
O	      6.26103      4.21885      4.19980        -0.130368     -0.027266     -0.171920
O	      6.22423      1.99974      6.21788        -0.202510     -0.070335     -0.018993
O	      8.47554      4.27685      6.18504         0.077151      0.175241     -0.000262
O	      2.12697      4.14457      4.07602         0.004800      0.100747     -0.008442
O	      4.26145      6.24591      4.16447        -0.001638     -0.001597      0.015055
O	      4.27698      4.16306      6.12356        -0.152874     -0.014113     -0.031656
O	      6.41571      6.23652      6.14088        -0.057636      0.097732      0.065998
O	      6.45209      4.09864      8.36055        -0.043644      0.050357      0.465899
O	      8.55037      6.22508      8.27188        -0.031432      0.012579     -0.032578
O	      2.27887      6.22642      6.02245         0.058387     -0.004004     -0.072746
O	      4.28216      8.28063      6.04905         0.051822     -0.071120     -0.022239
O	      4.23051      6.25902      8.21540        -0.182570     -0.014183     -0.112703
O	      6.35212      8.39664      8.30909         0.124548      0.401200     -0.049339
O	      6.53151      6.14024     10.39420         0.089228     -0.137887     -0.113159
O	      8.68736      8.21724     10.30238         0.173106     -0.040149     -0.012937
