# total energy = -252.45979313 eV
 
CRYSTAL
PRIMVEC
0.012026 6.298718 6.259333 
6.339324 -0.000055 6.271396 
4.217660 4.198669 0.008467 
PRIMCOORD
36 1
Li	      4.22676      4.16231      0.05437        -0.063769      0.027071     -0.048107
Li	      4.28252      2.24451      2.02310        -0.055009     -0.016019      0.036862
Li	      2.12855      4.25753      2.16222        -0.031684     -0.022887     -0.024836
Li	      8.44169      6.33924      6.36240        -0.028166      0.001321     -0.005694
Li	      6.30921      4.19692      6.37054        -0.007108      0.048290     -0.016934
Li	      0.13951      4.22131      4.14145         0.027139     -0.013391      0.005453
Li	      2.09691      6.16244      4.14949         0.006288      0.009732     -0.006237
Li	      2.10036      4.20258      6.17713         0.019272     -0.079000     -0.035961
Li	      8.49964      8.29773      8.33432        -0.018858      0.026577      0.041552
Ti	      2.16449      2.11792      0.06720         0.089594      0.068471      0.145746
Ti	      8.38675      4.24502      4.21416         0.026283     -0.089710      0.168413
Ti	      6.33443      8.36604     10.42640         0.101196      0.016408     -0.089221
Ti	      4.23798      6.25119      6.38267         0.038596     -0.244141      0.041215
V	      6.45997      6.19185      8.35991         0.036882     -0.067473     -0.042778
V	      2.16840      2.08168      4.14850         0.028275      0.028338      0.013771
Cr	      6.26182      2.15522      8.32779        -0.006991      0.079918      0.010602
Cr	      4.16243      4.23719      4.16679        -0.053177     -0.073751      0.113264
Cu	      6.25178     10.30673      8.13214        -0.013879     -0.109255     -0.283914
O	      1.98797      2.20967      2.00004         0.032625      0.008138     -0.177790
O	      4.18237      4.33444      2.17458         0.064725     -0.026799      0.004630
O	      4.28468      2.13558      4.20162         0.164148     -0.068347     -0.021622
O	      6.32005      4.13551      4.24701         0.035463     -0.066445      0.049143
O	      6.42642      2.07848      6.27100         0.017663      0.029095      0.013655
O	      8.46198      4.11856      6.12292        -0.037002     -0.078815     -0.188513
O	      2.21212      4.14226      4.19379         0.097561      0.106440     -0.020067
O	      4.27598      6.23939      4.16034        -0.092677     -0.005629     -0.013316
O	      4.17516      4.35677      6.20907         0.045101      0.211263     -0.024821
O	      6.20204      6.31523      6.27487        -0.130570      0.000070      0.133111
O	      6.32141      4.20239      8.37824        -0.015648     -0.036363     -0.002060
O	      8.45525      6.30696      8.32615         0.006731      0.008842      0.065538
O	      2.24968      6.43026      6.14920         0.009848      0.075582      0.024208
O	      4.10573      8.31716      6.30935        -0.150025     -0.037848     -0.033593
O	      4.36660      6.29672      8.36894         0.050700      0.058520     -0.010716
O	      6.36303      8.25433      8.51654        -0.020400      0.041284      0.192503
O	      6.27478      6.34482     10.44815        -0.096032      0.121392     -0.029349
O	      8.34187      8.49677     10.55524        -0.077091      0.069120      0.015861
