# total energy = -255.18640824 eV
 
CRYSTAL
PRIMVEC
0.012177 6.352288 6.382253 
6.363452 0.035470 6.358969 
4.245940 4.223017 0.019958 
PRIMCOORD
36 1
Li	      6.32539      0.13686      6.42209         0.004305     -0.045434      0.066946
Li	     10.55465      6.33840      8.44674         0.034786     -0.023821      0.052904
Li	      2.21178      4.26478      2.15210         0.083815     -0.029279      0.057584
Li	      6.34256      6.35536      4.32092        -0.009935     -0.004663      0.049394
Li	      4.18944      4.31757      4.30222        -0.008590      0.001961     -0.021423
Li	      4.32775      2.21169      6.40779        -0.052333      0.086783      0.000479
Li	      6.27180      4.21206      6.38253        -0.052404      0.039906     -0.023881
Li	      2.22209      6.28800      4.20156         0.050519     -0.055779     -0.021060
Li	      4.27816      6.23102      6.28158         0.031297     -0.041821     -0.041772
Ti	      6.23511      4.27568      2.09736        -0.172770     -0.002328      0.044490
Ti	      8.46335      4.36035      4.37921        -0.090267      0.458875     -0.018981
Ti	      4.37451      8.31045      4.32791         0.466320     -0.597762      0.057362
Ti	      6.44768      6.34317      8.38033        -0.332469      0.137748     -0.310736
V	      4.25797      8.43454      8.50476        -0.008686      0.048039     -0.065631
V	      2.15086      4.26015      6.30472        -0.072500      0.012059     -0.088624
Cr	      8.43408      2.13443      6.34856         0.326898     -0.135644      0.331847
Cr	      4.29151      4.22652      8.46319        -0.170804      0.214187     -0.439326
Fe	      6.36367      2.11280      4.37676        -0.266813      0.038107      0.294204
O	      2.15525      2.01483      1.99961        -0.185061      0.028882     -0.103231
O	      4.35441      4.19359      2.19642         0.195188      0.177397     -0.096382
O	      4.21525      2.03037      4.25523        -0.021043     -0.214242      0.051789
O	      6.49981      4.21660      4.11523         0.213992      0.271181     -0.038491
O	      6.47508      2.15846      6.39007        -0.065666     -0.034356     -0.346033
O	      8.48513      4.16342      6.24009         0.034275      0.007662     -0.039793
O	      2.02138      4.26415      4.22041        -0.293072     -0.009879     -0.065869
O	      4.25843      6.47698      4.26029         0.011602      0.608105     -0.035411
O	      4.21066      4.25958      6.47792         0.182681     -0.095032      0.374635
O	      6.32492      6.36348      6.51897         0.039400     -0.104373      0.189464
O	      6.29422      4.36788      8.62141         0.045682     -0.243940      0.013203
O	      8.37072      6.45124      8.51791         0.347763     -0.037453      0.005246
O	      2.14554      6.41159      6.50073        -0.025446      0.198928      0.050268
O	      4.20993      8.49977      6.30208        -0.205431      0.014346     -0.136476
O	      4.24885      6.29162      8.60345        -0.068197     -0.218102      0.005418
O	      6.43643      8.48384      8.49318         0.181157      0.039628      0.311771
O	      6.24370      6.37926     10.48775        -0.094487     -0.458386      0.010804
O	      8.59480      8.56040     10.64563        -0.053704     -0.031500     -0.074687
