# total energy = -136.06392291 eV
 
CRYSTAL
PRIMVEC
2.086557 2.086631 -0.000008 
-6.312925 6.313159 3.951787 
-0.000167 0.000161 7.903059 
PRIMCOORD
24 1
Li	     -3.19595      5.28610      4.97161         0.023384     -0.025254     -0.024016
Li	     -3.19458      5.28405      8.86035         0.019310     -0.019931      0.030458
Li	     -1.06855      3.15757      4.94782         0.001085     -0.000853     -0.019300
Li	     -1.06933      3.15727      8.88424        -0.001902      0.003335      0.016961
Li	     -5.23334      7.32226      4.94054        -0.022863      0.022298      0.008716
Li	     -5.23473      7.32337      8.89278        -0.018228      0.019567     -0.013055
Mn	     -1.02951      1.03158      2.96476        -0.028242      0.027489      0.003736
Mn	     -1.05893      1.06093      6.91632        -0.004937      0.004675      0.001388
Mn	     -3.18060      3.18294      2.96446         0.018169     -0.018962     -0.005237
Ni	     -3.19228      3.19500      6.91596         0.052231     -0.052353      0.001261
Ni	     -5.25094      5.25337     10.86832         0.004242     -0.004467     -0.018267
Ni	     -5.20682      5.20956      6.91554        -0.062214      0.061503      0.012998
O	     -3.14033      5.22972      6.91613        -0.048930      0.047282     -0.003154
O	     -3.12407      5.21295      2.96428         0.033022     -0.034262      0.005193
O	     -0.97944      3.06801      6.91614         0.089920     -0.091610     -0.002286
O	     -1.01534      3.10385      2.96450         0.021896     -0.021823     -0.004519
O	      0.95936      1.12941      2.96494        -0.031498      0.032981     -0.007331
O	      0.93524      1.15343      6.91606        -0.067804      0.068542      0.002040
O	     -5.28172      5.28434      4.91650         0.010116     -0.010900      0.056428
O	     -5.28158      5.28390      8.91576         0.009236     -0.007755     -0.040214
O	     -3.14157      3.14396      4.85420        -0.000579      0.000057     -0.076779
O	     -3.14240      3.14442      8.97781         0.009732     -0.007431      0.084847
O	     -1.06539      1.06721      0.99162         0.003542     -0.001756     -0.017138
O	     -1.06479      1.06702      4.93765        -0.008687      0.009628      0.007271
