# total energy = -257.09060861 eV
 
CRYSTAL
PRIMVEC
0.044992 6.422057 6.264671 
6.332792 0.067297 6.242669 
4.245799 4.290614 0.020586 
PRIMCOORD
36 1
Li	      4.33648      2.23853      2.15565         0.008703      0.044081     -0.037646
Li	      6.31083      8.62394     10.33920        -0.005107      0.005018      0.039241
Li	     10.43980      6.39462      8.36805        -0.008518     -0.034528      0.000982
Li	      8.58338      4.53415      8.36549         0.061403      0.044134      0.019289
Li	      4.22820      4.23227      4.08021        -0.046984     -0.052387      0.016445
Li	      8.46112      6.49712      6.42003        -0.014090      0.004737      0.018888
Li	      4.30232      6.41867      6.33200        -0.019329     -0.001637      0.024460
Li	      8.37735      8.47881      8.33607        -0.005598     -0.009125      0.005308
Li	      6.52484      6.58458      8.31521         0.015485      0.012580      0.004268
Ti	      2.13526      2.18357      0.12526        -0.010146     -0.007469      0.053384
Ti	      4.33572      6.53168     10.30386         0.141583      0.055698     -0.287631
Ti	      6.19973      4.34583      6.39458        -0.406690      0.024196      0.161482
Ti	      6.36721      4.30859     10.29039         0.053401     -0.114665     -0.059662
V	     10.50165      4.44494      6.30437         0.004254      0.013021     -0.016086
V	      6.44891      8.51319      6.30770        -0.026529      0.015722     -0.029714
Cr	      6.36754     10.65706      8.39977        -0.052601     -0.055745     -0.063811
Cr	      2.13238      2.14068      4.12109        -0.110643      0.045924      0.006762
Cr	      8.51919      6.49021     10.33482         0.018942      0.015338      0.029599
O	      2.15992      2.04787      2.04905         0.001350     -0.005930     -0.135828
O	      4.35316      4.29836      2.10501         0.036017     -0.008812      0.069349
O	      4.16189      2.02063      4.19568        -0.011975     -0.164960     -0.011766
O	      6.42813      4.37557      4.19156         0.054094      0.000684      0.008313
O	      6.45704      2.33249      6.25029         0.108313      0.142036     -0.012075
O	      8.38061      4.24305      6.23372        -0.118098     -0.086325     -0.012323
O	      2.07530      4.16146      4.15347        -0.061959     -0.136655     -0.082242
O	      4.33813      6.57433      4.16193         0.055627      0.154133     -0.007405
O	      4.34438      4.30152      6.24426         0.476436     -0.002979      0.016218
O	      6.34837      6.33527      6.17808        -0.002335     -0.167026     -0.014773
O	      6.32667      4.37820      8.32008        -0.006023     -0.010955     -0.033062
O	      8.48077      6.48297      8.38654        -0.002023      0.019412     -0.055563
O	      2.13612      6.49100      6.28448         0.053160      0.148010      0.042173
O	      4.22834      8.63852      6.15864        -0.145835     -0.057149     -0.059129
O	      4.17436      6.43305      8.45597         0.032402      0.035756      0.278472
O	      6.39009      8.69801      8.36067        -0.010789      0.027876      0.115513
O	      6.31729      6.44157     10.41978        -0.122919     -0.023785     -0.096514
O	      8.58625      8.73760     10.57593         0.067024      0.131777      0.105083
