# total energy = -249.44047731 eV
 
CRYSTAL
PRIMVEC
0.053457 6.403956 6.227733 
6.407409 0.073806 6.207974 
4.296209 4.280677 0.024641 
PRIMCOORD
36 1
Li	      2.30791      8.42836      6.23650         0.055638     -0.085315     -0.024793
Li	      2.27725      6.50381      8.23132        -0.003046     -0.011695      0.008630
Li	      8.51979      4.29327      4.15257         0.010395     -0.007318      0.019853
Li	      4.31680      6.46049      2.15923        -0.007537     -0.031299     -0.010564
Li	      6.44225      4.30753      6.23950         0.026066     -0.013110     -0.022280
Li	      4.21191      8.38918      4.22190        -0.014903     -0.034743      0.000999
Li	      2.30330      6.47497      4.20842         0.005389     -0.037238      0.023390
Li	      4.20522      6.49887      6.20399        -0.012509      0.008620     -0.016852
Li	      4.37510      4.33388      8.29117         0.005028     -0.019171     -0.030474
Ti	      6.68547      8.66635     10.32678         0.565407      0.210779      0.011052
Ti	      2.14935      4.15835      2.14717         0.020933     -0.083243      0.110786
Ti	      8.61901      6.46099      6.26882         0.112411     -0.019053      0.019994
Ti	      6.31569      6.42632      8.37272        -0.423757     -0.108308      0.094652
V	      0.08177      6.39834      6.21109        -0.026497      0.029885      0.005107
V	      2.10423      4.38605      6.23522         0.072700      0.061864     -0.116787
V	      4.34298      4.37877      4.11452         0.009161      0.071362     -0.037637
Co	      6.40593      6.39851      4.18520        -0.033657     -0.023919      0.015635
Cu	      4.16932      8.36503      8.23994        -0.081080     -0.152951     -0.045830
O	      2.04210      2.28168      2.10173         0.059659      0.109322     -0.067484
O	      4.14133      4.38973      2.12468        -0.017237      0.001496      0.035270
O	      4.25598      2.26531      4.25521        -0.073379     -0.023996     -0.009223
O	      6.42659      4.18958      4.11239         0.058616     -0.232715     -0.024930
O	      6.28905      2.21626      6.12311        -0.129714     -0.009071     -0.121430
O	      8.57430      4.46005      6.32881        -0.019703      0.071809      0.062362
O	      2.23388      4.34419      4.09913        -0.075955      0.048485     -0.137878
O	      4.42399      6.30865      4.19437         0.084305      0.115115      0.053980
O	      4.21828      4.17208      6.15731         0.032695     -0.031555      0.080537
O	      6.56118      6.53643      6.27329        -0.017495     -0.048948      0.178035
O	      6.56814      4.48194      8.33407         0.027855      0.080507      0.004893
O	      8.51739      6.40805      8.20134        -0.053568      0.045426     -0.042255
O	      2.17767      6.34870      6.25714         0.031907      0.038843      0.032780
O	      4.43016      8.59230      6.15774        -0.090072     -0.065158      0.070511
O	      4.48206      6.33992      8.27129         0.358359      0.051881     -0.009395
O	      6.57020      8.48392      8.37473         0.046957      0.002446      0.167635
O	      6.41719      6.62073     10.29398        -0.003623      0.095114     -0.238408
O	      8.49738      8.61013     10.42378        -0.499753     -0.004146     -0.039880
