# total energy = -249.23336425 eV
 
CRYSTAL
PRIMVEC
0.029608 6.294684 6.359899 
6.311121 0.035460 6.354492 
4.206203 4.191671 0.024702 
PRIMCOORD
36 1
Li	      4.24272     10.43594      6.38600         0.018726     -0.034918      0.015405
Li	      4.29276      8.39964      8.43397        -0.006634     -0.020745     -0.042973
Li	      4.30106      6.31897     10.55755         0.071296      0.028572     -0.051708
Li	      8.33348      4.32238      8.46383        -0.070622      0.013313      0.016858
Li	      6.32516      4.28015      6.48345        -0.023424      0.035871      0.083664
Li	      8.37358      6.29247     10.51893        -0.034355     -0.056621     -0.122088
Li	      6.29337      8.37365      6.41962        -0.032047     -0.007326     -0.032059
Li	      4.27914      4.17320      8.47105         0.033210     -0.027613      0.003294
Li	      6.39812      6.23682      8.46470         0.041039     -0.050605      0.012691
Ti	      8.41523      2.28762      6.32558        -0.021834      0.347769      0.141489
Ti	      2.22816      6.23319      8.47690         0.288141      0.062972     -0.181901
Ti	      6.42160      8.28495     10.64620         0.066026     -0.343717      0.073571
Ti	      4.07947      4.17965      4.26181        -0.449468      0.062185      0.063654
V	      6.22561      2.20768      8.45041         0.176920     -0.045688     -0.154386
V	      4.27826      6.29729      6.40794         0.054708     -0.037522     -0.016637
V	      2.18767      2.08884      4.21701        -0.075409      0.075944     -0.051525
Co	      6.26365      4.32595     10.56074         0.037951      0.040862      0.057437
Ni	      8.35447      6.27295      6.44989        -0.004644     -0.020897     -0.097877
O	      2.03806      2.02613      2.06197         0.100490     -0.088679     -0.042389
O	      4.31885      4.26823      2.25889         0.057422     -0.134996      0.075765
O	      4.28915      2.19561      4.31073         0.185607      0.046241     -0.086586
O	      6.25584      4.15252      4.16765         0.006724     -0.154141     -0.054377
O	      6.32581      2.12322      6.32264         0.128425      0.009648     -0.150201
O	      8.42491      4.13687      6.37055        -0.001688     -0.349290     -0.050757
O	      2.18324      4.20546      4.22687         0.416819      0.046715      0.003381
O	      4.25577      6.19179      4.25702        -0.119474     -0.032438      0.028788
O	      4.20492      4.27131      6.22590        -0.039546     -0.068123     -0.135646
O	      6.25989      6.31408      6.33968        -0.024031     -0.001137      0.096407
O	      6.33271      4.13848      8.53562        -0.017548      0.135473     -0.012375
O	      8.50711      6.31169      8.41910        -0.173309      0.015672      0.260516
O	      2.19383      6.37139      6.49706        -0.087258      0.017819      0.137273
O	      4.14675      8.32120      6.34946        -0.067164      0.085095      0.019800
O	      4.12549      6.33112      8.47640        -0.257460      0.003068      0.016907
O	      6.32506      8.52836      8.61378         0.013881      0.110235      0.085316
O	      6.34829      6.45058     10.59158        -0.003878      0.358207      0.050193
O	      8.38774      8.41603     10.67490        -0.187591     -0.021204      0.041076
