# total energy = -251.69110507 eV
 
CRYSTAL
PRIMVEC
-0.011645 6.401766 6.225146 
6.235840 -0.006564 6.220214 
4.155457 4.262656 -0.002710 
PRIMCOORD
36 1
Li	      4.14644      4.27462      0.04043         0.000098      0.029775     -0.026712
Li	      8.29588      2.18062      6.23413        -0.044953      0.048598      0.016010
Li	      4.12846      8.53982      8.25228        -0.012042      0.028709     -0.013013
Li	     10.29472      6.37586      8.20462         0.034866     -0.026649     -0.058008
Li	      2.08472      2.13197      4.14314        -0.017059      0.037724     -0.012697
Li	      4.14314      4.28158      4.13053        -0.004627      0.025671     -0.009018
Li	      8.37135      6.38913      6.30805         0.011932      0.019691     -0.008723
Li	      4.13821      6.40269      6.25216         0.025793     -0.041693      0.007010
Li	      8.33718      8.45015      8.27012        -0.008709      0.015025      0.004107
Ti	      1.99251      0.17337      1.98269        -0.197405      0.339192     -0.031952
Ti	      4.15481      0.11611      4.20733         0.031111      0.311282      0.170486
Ti	      4.13094      8.35434      4.16405         0.053588     -0.416678      0.070992
Ti	      6.32418      8.41346      6.26739         0.297120     -0.232798     -0.072082
V	      6.25277      8.51660     10.39807        -0.090283     -0.053162      0.062934
V	      2.15228      4.19995      2.06383         0.128547     -0.056891     -0.019070
V	      6.13132      4.31354      6.22652        -0.000367      0.022824      0.006518
Co	      2.09169      6.39791      4.16886        -0.060511      0.055110     -0.119867
Co	      6.22270      6.40239      8.27836         0.110254     -0.008221      0.023266
O	      2.09759      2.03397      2.02668         0.017290     -0.350746      0.012669
O	      4.27307      4.27335      2.07439         0.240983     -0.014892      0.002492
O	      4.24385      2.00284      4.12017        -0.076435     -0.235590     -0.011540
O	      6.30462      4.23631      4.07636         0.049925      0.025176     -0.110616
O	      6.22767      2.22664      6.07292         0.052185     -0.115177      0.112651
O	      8.27668      4.27017      6.14471         0.095554     -0.008251     -0.195034
O	      1.99476      4.24559      4.21397        -0.021287     -0.008134      0.129840
O	      4.13731      6.51401      4.15342        -0.001658      0.353098      0.007964
O	      4.04238      4.25870      6.20115        -0.298040     -0.006315      0.039578
O	      6.20418      6.48615      6.22360         0.001847      0.236734      0.012090
O	      6.23513      4.27448      8.37922        -0.085601     -0.003561      0.111188
O	      8.26035      6.31677      8.38075        -0.125194      0.076934      0.058379
O	      2.09200      6.28742      6.29607        -0.062317     -0.027431      0.086854
O	      4.26515      8.53443      6.07693        -0.023733      0.001157     -0.085926
O	      4.07068      6.39164      8.44015        -0.043102     -0.012171     -0.043142
O	      6.22801      8.59035      8.26013        -0.003454      0.010111     -0.066571
O	      6.15301      6.38364     10.40017        -0.065847     -0.017914     -0.034987
O	      8.34299      8.59968     10.38494         0.091531     -0.000537     -0.016069
