# total energy = -252.24840132 eV
 
CRYSTAL
PRIMVEC
-0.008016 6.253200 6.303032 
6.304708 -0.012752 6.307616 
4.215446 4.184210 -0.020659 
PRIMCOORD
36 1
Li	      2.07416      6.25263      8.34626         0.026255      0.017806     -0.044369
Li	      8.44278      4.11481      4.30397         0.027450     -0.029092     -0.010558
Li	      8.37462      4.21645      8.33579        -0.027605     -0.034537      0.049076
Li	      8.29469      6.07518      6.34843        -0.093797     -0.051642      0.047436
Li	      6.41719      4.25074      6.28870        -0.059069     -0.016567      0.052146
Li	      6.36884      4.30943     10.47231         0.013227      0.039192     -0.076530
Li	      8.30283      6.21584     10.54450         0.041396      0.049323     -0.045725
Li	      2.08178      4.19165      6.26956         0.043168      0.005832      0.020759
Li	      6.36367      6.16511      8.36459         0.026680     -0.041499     -0.026202
Ti	      4.28669      8.30043      8.39528        -0.004352     -0.148387      0.142170
Ti	      6.33239      8.22917     10.47447         0.262703     -0.226323     -0.222191
Ti	      6.20714      2.16076      8.27394        -0.256515      0.353935      0.262838
Ti	      4.14206      4.18801      4.29236        -0.264454      0.081118      0.072559
V	      8.43634      2.14927      6.31297         0.018147      0.266989     -0.072992
V	      4.22013      6.27946      6.27755         0.161592     -0.192195     -0.055231
V	      8.37154      8.35586      8.42060         0.041844      0.032568     -0.012634
Cr	      6.34938      6.20856      4.18949        -0.073226      0.094932     -0.105036
Cu	      6.28985      6.24964     12.52324        -0.123370      0.013984     -0.085995
O	      2.08620      2.06211      2.11577         0.003773     -0.035411      0.333302
O	      4.21417      4.11267      2.28370        -0.002539     -0.014777      0.060971
O	      4.19401      2.13652      4.19513         0.050271      0.037289      0.006636
O	      6.17611      4.14181      4.21214        -0.057008     -0.040443      0.035295
O	      6.33583      2.15208      6.34548         0.221569     -0.052511     -0.018036
O	      8.39377      4.08479      6.31432         0.075243      0.068928     -0.027065
O	      2.22257      4.05960      4.21206         0.232477     -0.017325      0.044626
O	      4.31209      6.16672      4.11808         0.015256     -0.152595      0.030282
O	      4.16419      4.25468      6.26099         0.037141     -0.010535     -0.217079
O	      6.21926      6.25040      6.15312         0.029641      0.013013      0.074912
O	      6.27041      4.02750      8.46120         0.036947     -0.332160     -0.109983
O	      8.54859      6.24377      8.37330         0.347485     -0.036873     -0.045687
O	      2.23346      6.37863      6.25158        -0.111010     -0.110404      0.067016
O	      4.21785      8.28801      6.37958        -0.145714      0.006362     -0.028707
O	      4.20519      6.35552      8.36964         0.010773      0.208111     -0.008230
O	      6.26190      8.38543      8.43116        -0.186962     -0.001042      0.021350
O	      6.30160      6.38120     10.40058        -0.021517      0.245235      0.101421
O	      8.30362      8.37225     10.54418        -0.295898      0.009703     -0.210543
