# total energy = -251.99723133 eV
 
CRYSTAL
PRIMVEC
0.077126 6.365295 6.167997 
6.387208 0.071858 6.173370 
4.299753 4.288639 0.006482 
PRIMCOORD
36 1
Li	      4.29045     10.50316      6.17304        -0.013148     -0.072446     -0.030398
Li	      8.60001      2.30295      6.17171         0.035368     -0.056016     -0.024608
Li	      4.26185      2.26475      2.07051         0.037597     -0.020593      0.018830
Li	      2.32412      2.32787      4.13657         0.080037      0.043201      0.009421
Li	      4.16399      4.18160      4.16307         0.029572      0.004011      0.018444
Li	      8.49797      6.42398      6.12766         0.013694     -0.005524     -0.004355
Li	      0.20609      4.30547      4.12882        -0.026271      0.017024     -0.001486
Li	      6.45478      8.47636      6.10549        -0.029187      0.015630     -0.014167
Li	      6.52328      6.46368      8.19761        -0.026480      0.024682      0.032352
Ti	      2.08398      0.06572      2.00070        -0.047253      0.113023      0.049294
Ti	      0.09028      2.05150      2.02737         0.003336      0.094576     -0.109986
Ti	      4.38380      6.57347      6.12392        -0.016549      0.627475     -0.091331
Ti	      8.56975      8.58884      8.22405         0.022831      0.020763      0.059936
V	      4.40463      6.40630     10.29376         0.015869     -0.100223     -0.037528
V	      6.30001      2.13514      4.16054         0.078560      0.015681     -0.060425
V	      6.45091      4.35891      6.15668        -0.039626     -0.155154      0.071279
Cr	      2.18509      6.32018      4.16795        -0.087342      0.143713      0.023107
Ni	      2.22220      4.23325      2.06180        -0.105357      0.041117     -0.002326
O	      2.07618      2.08669      2.11924        -0.041868     -0.016824      0.003628
O	      4.35503      4.36169      2.03475         0.051149     -0.141163     -0.029658
O	      4.35724      2.14340      4.10158        -0.147751      0.075579      0.055939
O	      6.47243      4.19823      4.10394        -0.053518     -0.012465     -0.296065
O	      6.38617      2.26395      6.26590         0.007707      0.059290      0.182122
O	      8.47520      4.33068      6.23241        -0.122356      0.109458     -0.146992
O	      2.18814      4.36795      4.03648        -0.007979     -0.016311      0.325290
O	      4.21582      6.40490      4.11218         0.044551      0.030836      0.048908
O	      4.36044      4.36739      6.25725         0.103046      0.102956      0.048269
O	      6.32872      6.39344      6.14855        -0.064794     -0.076427     -0.012791
O	      6.34431      4.24241      8.18550         0.156950     -0.053795      0.274045
O	      8.64402      6.51937      8.31131        -0.022584      0.023466     -0.052142
O	      2.27965      6.35829      6.19596         0.093775     -0.001868      0.155245
O	      4.34332      8.40817      6.17960         0.009657     -0.514794      0.001164
O	      4.29419      6.33459      8.16045        -0.040014     -0.102811     -0.210927
O	      6.57985      8.63678      8.24038        -0.001880     -0.053891     -0.091788
O	      6.53820      6.49727     10.31261         0.068252     -0.075837      0.004002
O	      8.50001      8.51258     10.25394         0.042009     -0.086338     -0.164302
