# total energy = -245.35525942 eV
 
CRYSTAL
PRIMVEC
-0.001893 6.238502 6.426205 
6.402782 -0.057148 6.481779 
4.249278 4.176818 -0.019092 
PRIMCOORD
36 1
Li	      4.41849      8.23879      8.62664         0.032515      0.026201      0.023117
Li	      6.34107      8.32053     10.59533        -0.041824      0.003654     -0.066931
Li	      6.43499      6.24859      4.49746         0.048988     -0.047268      0.050926
Li	      4.25576      4.04729      4.52455         0.007551     -0.083545      0.021837
Li	      4.09667      2.19969      6.40701        -0.010940     -0.064438     -0.029599
Li	      6.55289      8.15476      6.51951        -0.016534      0.086264      0.057489
Li	      4.40652      6.07914      6.51250        -0.019035      0.020011      0.098400
Li	      4.14020      4.12763      8.42103         0.001829      0.021562     -0.098437
Li	      6.35840      6.39104      8.36571        -0.014782      0.026386     -0.041003
Ti	      6.45870      6.23843     12.84058         0.059591      0.084099     -0.113948
Ti	      4.18855      0.09911      4.15640        -0.214001      0.651942     -0.255987
Ti	     10.54907      6.22895      8.63170        -0.181231      0.120731     -0.022063
Ti	      4.25914      8.22986      4.34217         0.213390     -0.102123     -0.039588
V	      2.14814      8.33043      6.39807        -0.074138     -0.002561      0.124310
V	      6.38775     10.27412      8.60229         0.066437      0.080484      0.019682
V	      2.12674      4.12083      2.15058        -0.024074     -0.028123     -0.029100
Cu	      6.17111      4.31632      6.40375         0.092991     -0.215984      0.013356
Cu	      2.13908      6.23453      4.27414         0.041286     -0.033808     -0.043714
O	      1.99835      2.07101      2.07896        -0.033486      0.022151      0.000046
O	      4.24342      4.23426      2.02180        -0.055047      0.053603     -0.046111
O	      4.28756      1.92897      4.31150        -0.006512     -0.505882     -0.053975
O	      6.52784      4.12218      4.18900         0.198144     -0.027711     -0.139795
O	      6.46625      1.98340      6.59983         0.051638     -0.208925      0.070980
O	      8.65693      4.10086      6.52633         0.189211     -0.013920     -0.011862
O	      1.96675      4.14988      4.14722        -0.065721      0.021055      0.082096
O	      4.30456      6.32140      4.14117        -0.056143      0.092005     -0.076911
O	      4.28426      4.15374      6.43038        -0.295155     -0.138862      0.066270
O	      6.36152      6.19214      6.45581         0.114099      0.271038     -0.033537
O	      6.43633      3.98874      8.77592        -0.042777     -0.163798      0.287151
O	      8.67452      6.08711      8.52929         0.103941      0.110252     -0.001099
O	      1.99522      6.25928      6.57239        -0.106361      0.001816     -0.022315
O	      4.24663      8.43169      6.29894        -0.021194      0.010384     -0.213537
O	      4.22584      6.23224      8.71582         0.048255      0.019781      0.291450
O	      6.38281      8.38626      8.58522         0.031246     -0.074149     -0.017946
O	      6.26258      6.14613     10.91200        -0.032243     -0.007109      0.133820
O	      8.66649      8.40032     10.80016         0.010084     -0.005213      0.016529
