# total energy = -251.76398785 eV
 
CRYSTAL
PRIMVEC
-0.005312 6.375927 6.353770 
6.215891 -0.009899 6.358464 
4.155561 4.265053 -0.018048 
PRIMCOORD
36 1
Li	      6.17019      0.03163      6.33226        -0.001688      0.031695     -0.038477
Li	      4.22614      8.40283      8.48310         0.007565     -0.000350      0.023264
Li	      4.20518      6.42116     10.49107         0.042794     -0.027191     -0.054509
Li	      6.15082      2.09049      4.22683        -0.003415      0.017778     -0.000803
Li	      4.19989      2.17366      6.32651         0.015611      0.022044     -0.011528
Li	      6.14121      4.22653      6.39654        -0.001905     -0.020967      0.044442
Li	      4.20673      6.30223      6.48993         0.016407     -0.065049      0.022544
Li	      4.13244      4.35908      8.36522        -0.026904      0.053936     -0.028584
Li	      6.07780      6.40781      8.46394         0.013618     -0.021088      0.013416
Ti	      2.07240      8.46979      6.33365        -0.036042     -0.024135     -0.164829
Ti	      8.29495      4.26968      8.33455        -0.106679      0.157814     -0.139064
Ti	      6.34419      6.26546      4.33937         0.318997     -0.147684      0.316318
Ti	      8.20077      6.45388     10.61833        -0.246892      0.157559      0.015182
V	      2.16933      6.35792      8.45832        -0.097624     -0.017535     -0.074971
V	     10.33829      8.52617     10.58841        -0.040071      0.018920     -0.058309
V	      6.19235      8.49987      6.38350        -0.038794     -0.005490      0.033828
Fe	      4.19310      4.24588      4.32550         0.026219     -0.037614     -0.091326
Co	      6.17421      2.13753      8.39824        -0.064426     -0.023115      0.029295
O	      2.11026      2.15757      2.14570         0.000153      0.104451      0.001365
O	      4.11200      4.29580      2.19375        -0.085385      0.053492     -0.087189
O	      4.03910      2.10506      4.24225        -0.297741     -0.069966      0.062897
O	      6.27950      4.37684      4.18193         0.098292      0.244143      0.059848
O	      6.38561      2.11444      6.37419         0.055117      0.001252      0.056615
O	      8.33499      4.17992      6.47727        -0.049011     -0.056308      0.258948
O	      2.04039      4.23403      4.23003         0.085037     -0.052121     -0.069112
O	      4.14142      6.42157      4.15510        -0.023637     -0.030480      0.008851
O	      4.02294      4.21597      6.31359         0.069095      0.009931      0.183687
O	      6.19049      6.41274      6.19500         0.043259     -0.065873     -0.296135
O	      6.35445      4.20838      8.49042         0.132663      0.006372     -0.101756
O	      8.26346      6.20992      8.59149         0.061832     -0.116390     -0.044030
O	      2.08738      6.39004      6.29556        -0.026039      0.077172     -0.113846
O	      4.09147      8.51980      6.33708        -0.036934     -0.006963      0.039773
O	      4.05987      6.37375      8.46563         0.081737      0.040194      0.024889
O	      6.18305      8.66277      8.33087         0.027677     -0.130468      0.087444
O	      6.33102      6.37743     10.58724         0.219328      0.070008      0.027000
O	      8.26625      8.42035     10.63074        -0.132213     -0.147976      0.064860
