# total energy = -250.85349262 eV
 
CRYSTAL
PRIMVEC
-0.034859 6.336472 6.300652 
6.374546 -0.012954 6.279085 
4.246717 4.206994 -0.005630 
PRIMCOORD
36 1
Li	      8.46893      2.10712      6.24000         0.005271     -0.012740      0.071347
Li	      6.36286      4.23214      2.17743        -0.011395      0.050589     -0.025566
Li	      4.19614      2.12079      2.18497        -0.060444      0.000384     -0.037722
Li	      2.18386      2.06058      4.17745         0.004837      0.017012     -0.012688
Li	      4.35047      4.07615      4.17597         0.009066     -0.036699     -0.006365
Li	      4.30677      2.10293      6.22327         0.021738      0.006018      0.058480
Li	      6.34029      4.14609      6.23338        -0.035704      0.011226      0.050007
Li	     10.51097      8.42034     10.45926         0.035840      0.019477     -0.004145
Li	      8.46439      6.42338     10.45301        -0.020942      0.027331     -0.027795
Ti	      8.36109      4.25716      4.31882        -0.212159      0.271326      0.231670
Ti	      0.10625      2.03208      2.08656         0.347846     -0.296446     -0.331967
Ti	      2.07322      4.24384      6.12248        -0.064896      0.012498     -0.315141
Ti	      4.19009      6.35238      6.12201        -0.034952      0.075429     -0.290274
V	      0.04382      6.28874      6.26887         0.051758     -0.061265      0.104244
V	      8.45886      8.43926      8.39006         0.062231     -0.042602      0.136414
V	      6.36252      6.30573      8.43146        -0.003326      0.008702     -0.074025
Fe	      2.09982      4.22500      2.17010         0.050348      0.008699     -0.046415
Cu	      6.33314      2.15869      4.24587        -0.055431      0.096016      0.001657
O	      1.97223      2.11284      2.13751        -0.485562     -0.012382      0.010452
O	      4.26227      4.30405      2.11158         0.032601      0.300215      0.028682
O	      4.24325      1.95094      4.17961         0.114511     -0.289924      0.049728
O	      6.48776      4.24414      4.22187         0.443025     -0.131044      0.046543
O	      6.36659      2.04949      6.48326         0.006875      0.078729      0.355524
O	      8.56105      4.19370      6.24935        -0.098974     -0.023015     -0.391472
O	      2.09687      4.21032      4.26069         0.022116     -0.045848      0.565837
O	      4.21543      6.33925      4.24281        -0.030120      0.041951      0.378520
O	      4.14166      4.32123      6.26819        -0.107981      0.136178      0.146968
O	      6.21818      6.38798      6.35324        -0.195418      0.170944     -0.077207
O	      6.27667      4.20399      8.36033        -0.054665     -0.089966     -0.091546
O	      8.51038      6.38318      8.40328        -0.000137     -0.038239      0.019555
O	      2.18078      6.27927      6.27825         0.237613     -0.139007     -0.070747
O	      4.28211      8.35849      6.29078         0.157527     -0.244497     -0.056461
O	      4.25494      6.26794      8.37321         0.049971      0.102728     -0.004369
O	      6.44255      8.33216      8.19496         0.102198     -0.068031     -0.144136
O	      6.28068      6.27778     10.41349        -0.128189      0.085894      0.005012
O	      8.49470      8.56362     10.43207        -0.155076      0.010358     -0.252601
