# total energy = -90.97418694 eV
 
CRYSTAL
PRIMVEC
-0.000431 2.084638 2.087764 
6.120431 6.287211 -4.210279 
-4.086236 2.101466 -2.103728 
PRIMCOORD
16 1
Li	     -2.03549      4.24061     -2.15542        -0.002408      0.029025     -0.028584
Li	      0.04070      6.39348     -2.23525        -0.018088     -0.248728      0.248345
Li	      1.98824      6.18289     -4.09641         0.047359     -0.018625      0.016464
Li	      4.06469      8.33495     -4.17792        -0.024401      0.170914     -0.171183
Mn	     -3.99916      4.15676      0.00244         1.072441      0.400106     -0.365257
Mn	     -0.09259      4.21703     -0.03777         0.180919     -0.090837      0.062970
Ni	      2.02776      4.22383     -2.13679        -0.532471     -0.238935      0.233967
Ni	      4.08770      6.25100     -2.09197        -0.199589     -0.004281      0.016102
O	      4.29326      6.21821     -4.15243        -0.602965     -0.241795      0.253731
O	     -0.02018      6.33420     -4.25964         0.381960      0.374676     -0.378314
O	      2.10600      8.49247     -4.34948        -0.469531     -0.529350      0.533730
O	     -2.04576      4.18636     -0.01743        -0.266426     -0.114389      0.115177
O	     -0.07687      4.08408     -1.98401        -0.113510      0.174080     -0.194848
O	      2.04966      6.24240     -2.07278         0.692756      0.451950     -0.440763
O	     -0.00235      2.09268     -0.00890        -0.161080      0.092856     -0.075450
O	      1.82200      4.25631     -0.07655         0.015035     -0.206666      0.173915
