# total energy = -136.08329841 eV
 
CRYSTAL
PRIMVEC
2.085606 2.085621 0.000001 
-6.309219 6.309262 0.000028 
-0.000052 0.000027 7.897923 
PRIMCOORD
24 1
Li	     -3.13352      5.22016      1.01481        -0.024523      0.023341     -0.035863
Li	     -3.13313      5.21932      4.90491        -0.025572      0.024764      0.035829
Li	     -1.09994      3.18441      0.99357         0.017915     -0.017125     -0.000890
Li	     -1.09955      3.18427      4.92577         0.019481     -0.018511      0.001098
Li	     -5.25710      7.34189      0.99513         0.006075     -0.006214     -0.016271
Li	     -5.25734      7.34167      4.92374         0.006215     -0.004920      0.016200
Mn	      1.03491      3.13467      2.95930         0.005824     -0.003169      0.005940
Mn	      1.01520      3.15461      6.90860         0.029852     -0.028313     -0.002164
Mn	     -5.23605      5.23622      6.90836        -0.008605      0.007254      0.008471
Ni	     -3.20795      3.20836      2.96026         0.053638     -0.054717     -0.005474
Ni	     -3.16392      3.16406      6.90828        -0.003247      0.002038      0.008446
Ni	     -5.22356      5.22369      2.95930        -0.069921      0.069824      0.004828
O	     -3.18446      5.27038      2.96012         0.054220     -0.054456     -0.002816
O	     -3.21552      5.30162      6.90849        -0.006529      0.006393      0.001450
O	     -0.94870      3.03257      2.95975         0.047369     -0.046825     -0.001862
O	     -0.98806      3.07225      6.90836         0.004953     -0.006160      0.001770
O	      0.95723      1.12687      2.95961        -0.078948      0.080104     -0.001635
O	      1.01279      1.07162      6.90835         0.000667      0.000305      0.000771
O	     -3.18763      7.35887      0.90214         0.005761     -0.006182     -0.068345
O	     -3.18737      7.35852      5.01778         0.003869     -0.004461      0.058537
O	     -1.05137      5.22228      0.96549        -0.008961      0.009248      0.044049
O	     -1.05107      5.22197      4.95422        -0.008492      0.007979     -0.050067
O	      1.04618      3.12326      0.98263        -0.010463      0.009096      0.016308
O	      1.04640      3.12291      4.93637        -0.010579      0.010705     -0.018309
