# total energy = -249.30954400 eV
 
CRYSTAL
PRIMVEC
0.001957 6.235778 6.295965 
6.294065 -0.013642 6.311380 
4.195822 4.167430 -0.008727 
PRIMCOORD
36 1
Li	      4.19029      4.20949      0.11258        -0.039219     -0.016794      0.008389
Li	      6.15512      4.15610      2.07258        -0.017790     -0.031400      0.026060
Li	      4.15271      6.11754      2.04723        -0.016161     -0.065582      0.012234
Li	      2.19053      4.20892      2.05965         0.010125     -0.008137     -0.016703
Li	      4.21588      4.12620      4.19533         0.006288     -0.047021      0.004914
Li	      4.29150      2.18495      6.33095         0.052719      0.065666     -0.051471
Li	      6.20872      4.09176      6.33404         0.002403     -0.019702      0.012675
Li	      0.01668      4.14628      4.18872        -0.036197      0.018120     -0.021429
Li	      2.20175      4.17246      6.32713         0.036910     -0.001640      0.012264
Ti	      8.31047      2.17259      6.44254        -0.122269      0.266425      0.048626
Ti	      6.22095      6.25063      4.24695         0.068507     -0.042370      0.023363
Ti	      2.16510      6.08371      4.24679        -0.051618     -0.081423      0.104571
Ti	      6.33905      6.14272      8.28337         0.009710     -0.340203      0.020273
V	      4.18941      2.19929      2.04448         0.038316     -0.057123      0.074868
V	      8.40843     10.37500     10.51970         0.119677      0.103011      0.030904
V	      6.30080      2.14664      4.22447        -0.161644     -0.035086      0.062049
Fe	      4.22108      6.13559      6.22497        -0.052701      0.191388      0.100616
Ni	      4.18478      4.14646      8.31559         0.034108      0.086544      0.208051
O	      2.08478      2.09751      2.11280        -0.053056     -0.013497     -0.060021
O	      4.19965      4.07557      2.08614        -0.012118      0.099764      0.010562
O	      4.15948      2.04786      4.12438        -0.192200      0.107549      0.004042
O	      6.32380      4.25517      4.21606        -0.027933      0.195464     -0.017560
O	      6.40643      2.06347      6.31892         0.137620     -0.015402      0.078163
O	      8.41972      4.02761      6.30285        -0.001581     -0.251771      0.034420
O	      2.06782      4.15755      4.22358         0.000745      0.106909     -0.006851
O	      4.18539      6.22716      4.11484        -0.006210     -0.003185     -0.066028
O	      4.20621      4.19646      6.33433        -0.000341     -0.257489     -0.179027
O	      6.36973      6.26571      6.26935         0.036586      0.035198     -0.044746
O	      6.23131      4.31516      8.40131         0.176283      0.331541     -0.050929
O	      8.29469      6.26175      8.51589        -0.034915     -0.122347      0.069910
O	      2.05660      6.30019      6.15360        -0.067451     -0.003118     -0.231243
O	      4.05174      8.21140      6.36278        -0.067710      0.048623     -0.047701
O	      4.30125      6.28663      8.42387         0.103450      0.031604      0.011433
O	      6.29214      8.25634      8.41230        -0.095495     -0.033768     -0.101628
O	      6.35710      6.27085     10.37740         0.113058     -0.166097     -0.070114
O	      8.38798      8.26890     10.58858         0.110099     -0.074653      0.007064
