# total energy = -253.91115126 eV
 
CRYSTAL
PRIMVEC
0.021958 6.337027 6.258241 
6.371679 0.003854 6.276249 
4.232867 4.221869 0.017437 
PRIMCOORD
36 1
Li	      4.25607      2.13504      2.12731        -0.011538      0.009904      0.027388
Li	      4.26210      0.05837      4.20438         0.009937      0.005106      0.018913
Li	      6.32813      2.09532      4.20665        -0.004270     -0.018119     -0.006595
Li	      6.39735      2.15173      8.36420         0.020282      0.009831      0.027895
Li	      8.44706      4.22540      8.39675        -0.012460     -0.013437      0.010072
Li	      6.39156      4.21307      6.31930         0.010991      0.003652      0.014790
Li	      0.05140      4.22195      4.14535         0.021725      0.013906     -0.048944
Li	      2.14021      6.27439      4.14589        -0.010697     -0.029076     -0.087453
Li	      6.34664      8.42484      6.23590        -0.000728     -0.017320     -0.018231
Ti	      8.38342      2.20189      6.14843        -0.072730      0.243427     -0.220075
Ti	      6.39145     10.50123      8.36145        -0.132672      0.010557      0.344304
Ti	      4.26682      6.37790      6.27579         0.152921      0.025430     -0.049232
Ti	      6.40902      6.27978      8.49469         0.036398     -0.178393      0.082268
V	      2.13423      2.14578      4.15190         0.094780      0.068887     -0.083462
V	      4.20625      4.22367      4.17008        -0.012567     -0.008695     -0.064949
V	      8.48801      8.47361      8.44230         0.066666     -0.038895      0.016661
Fe	      4.26029     10.50704      6.23724        -0.060690     -0.082550     -0.068897
Fe	      8.55289      6.28004      6.30019         0.027171     -0.016707      0.010978
O	      2.14171      1.95329      2.02818         0.006082     -0.082748     -0.016413
O	      4.38210      4.17892      2.16399         0.101278     -0.012603     -0.135973
O	      4.14929      2.13060      4.26874         0.064041      0.010850     -0.090197
O	      6.28554      4.31293      4.11373         0.107390     -0.092502     -0.060791
O	      6.48732      2.12085      6.29263         0.212223      0.021176     -0.013774
O	      8.55284      4.09585      6.31184        -0.127000     -0.284259      0.009260
O	      2.22205      4.13466      4.15275        -0.029759      0.063838      0.007324
O	      4.32198      6.31775      4.23583        -0.044638     -0.005660      0.196406
O	      4.25553      4.35552      6.23211        -0.060611      0.129286      0.062227
O	      6.27823      6.37172      6.31818        -0.266190      0.047075     -0.044367
O	      6.36255      4.38454      8.37576         0.022521      0.203890     -0.032654
O	      8.37635      6.36817      8.31894        -0.117704     -0.034994      0.155073
O	      2.14926      6.39235      6.27562         0.193404      0.058812      0.092005
O	      4.13475      8.31096      6.26085        -0.063922     -0.130726     -0.028563
O	      4.30050      6.36190      8.36510        -0.069674      0.085228     -0.130387
O	      6.38450      8.49400      8.35457        -0.063424      0.040401     -0.000712
O	      6.39515      6.36044     10.33609         0.018799      0.009686     -0.161209
O	      8.47899      8.46793     10.55242        -0.005334     -0.014262      0.287315
