# total energy = -224.00268349 eV
 
CRYSTAL
PRIMVEC
-0.029520 6.324679 6.229469 
6.305971 -0.002617 6.202727 
4.214178 4.208759 -0.011885 
PRIMCOORD
36 1
Li	      0.07491      0.06787      0.03603         0.021365      0.023576     -0.073614
Li	      2.02710      8.33440      6.23777        -0.019112     -0.048793     -0.036010
Li	      6.18929      4.21737      2.02340         0.033939     -0.003166     -0.001998
Li	      6.38080      8.35102     10.24960         0.058259     -0.001326     -0.040747
Li	      2.19217      4.24422      2.07375        -0.023026      0.019110      0.005835
Li	      4.20666      4.22494      4.03034        -0.000274      0.011067      0.022443
Li	      8.32214      6.37828     10.30554        -0.005625     -0.022256     -0.002457
Li	      8.36392      8.29326      8.34262         0.016225     -0.031211      0.034391
Li	      6.33677      6.43791      8.35159        -0.008120      0.046739      0.010689
Sc	      4.19639      6.26112     10.30573         0.082979     -0.175454     -0.062675
Cr	      4.20364      2.22016      2.04929        -0.051959      0.017667     -0.071892
Fe	      2.05946      2.10223      4.07114        -0.050013      0.032819      0.037132
Fe	      8.45305      6.30011      6.29169        -0.003082      0.029429     -0.064291
Fe	      6.32702      4.18125      6.25979        -0.000714     -0.053068      0.140424
Fe	      6.26082      4.25724     10.27067         0.009229      0.006025      0.051436
Fe	      2.09312      4.29450      6.26301        -0.051197      0.018902     -0.049429
Fe	      4.10717      6.30728      6.28201         0.031756      0.032517     -0.116545
Co	      4.20634      6.26353      2.06589        -0.100566     -0.121624      0.042961
O	      2.06647      2.09868      2.12540         0.042857     -0.003076     -0.126047
O	      4.20235      4.24718      2.04065         0.037951      0.045010     -0.035965
O	      4.12769      2.12165      4.11192         0.051073      0.003859      0.058928
O	      6.31904      4.26376      4.26801        -0.037747      0.026073     -0.081294
O	      6.24708      2.15775      6.33473         0.096298     -0.010629     -0.022453
O	      8.31891      4.32815      6.16689         0.073426     -0.067313      0.018276
O	      1.98353      4.10639      4.26306         0.102906      0.018363     -0.044956
O	      4.25537      6.34508      4.09467        -0.056433      0.000983      0.044683
O	      4.18294      4.23501      6.24519         0.063239     -0.072079      0.021939
O	      6.31570      6.29332      6.21884        -0.058286      0.023649     -0.007271
O	      6.31260      4.01351      8.27486         0.000447     -0.018455     -0.051780
O	      8.56891      6.29340      8.21587         0.010547      0.030010      0.081702
O	      2.19103      6.24927      6.17155        -0.126538      0.079536      0.010223
O	      4.23716      8.35225      6.22945        -0.046945      0.016717      0.038749
O	      4.17872      6.48926      8.22788         0.001047      0.019453      0.120866
O	      6.17199      8.45431      8.21226        -0.000396      0.009703      0.076557
O	      6.26377      6.22024     10.32391        -0.018876      0.105041      0.040591
O	      8.47422      8.44711     10.33384        -0.074635      0.012203      0.031600
