# total energy = -221.27006073 eV
 
CRYSTAL
PRIMVEC
0.013443 6.293963 6.355566 
6.246545 0.034287 6.334816 
4.177604 4.195343 0.009574 
PRIMCOORD
36 1
Li	      6.26635      4.18756      2.15766        -0.001475      0.054943      0.015776
Li	      4.17904      6.31780     10.52857         0.003178      0.014918      0.018274
Li	      4.19431      6.30003      2.16817        -0.040805     -0.020469      0.050565
Li	      4.22592      4.20413      4.23000        -0.023153      0.055695     -0.024982
Li	      6.20272      4.27126      6.33117        -0.021117      0.063882     -0.015177
Li	      0.04330      4.17026      4.20183         0.008481     -0.033742     -0.010776
Li	      6.29285      8.33515      6.36133         0.000135     -0.024020     -0.048297
Li	      4.24823      6.28001      6.37453         0.040415     -0.013189     -0.030408
Li	      6.22233      6.31659      8.45443         0.047367     -0.013776     -0.006512
Sc	      2.16812      6.22609      4.22954         0.160238     -0.141678     -0.075718
Cr	      4.19619     10.47075      6.35813        -0.188031     -0.002035      0.116057
Fe	      8.35208      8.41835     12.68093        -0.011495      0.145742      0.053732
Fe	      4.26318      8.34542      8.50753        -0.107468     -0.046929     -0.053762
Fe	      8.23875      4.20163      8.47043        -0.047712      0.108582     -0.041516
Fe	      6.14727      6.19191      4.28097        -0.053704      0.241817     -0.022671
Fe	      4.11260      2.21219      6.33183        -0.006183     -0.078350      0.051574
Fe	      4.26371      4.39860      8.41809        -0.007162     -0.138765      0.038802
Cu	      6.24319      2.18638      4.21442         0.029164      0.073874      0.053705
O	      6.23713      4.30786      4.23105         0.068136     -0.480603     -0.018991
O	      2.10884      2.12819      2.10185         0.039018     -0.033948     -0.044850
O	      4.07863      4.09116      2.01805         0.070789      0.056845      0.006182
O	      4.17870      2.12455      4.23491        -0.032014      0.000743     -0.030858
O	      6.25430      2.07795      6.24400        -0.009803     -0.050756      0.071488
O	      8.38655      4.20719      6.41134         0.079160     -0.009589     -0.065797
O	      2.07860      4.14385      4.12411         0.032822      0.039562      0.105818
O	      4.21431      6.27444      4.25740        -0.182613      0.040752     -0.020956
O	      4.14828      4.14915      6.47823        -0.019797      0.063938     -0.067162
O	      6.35134      6.31612      6.22250        -0.046171      0.035847      0.162792
O	      6.23809      4.23186      8.46106         0.027548     -0.018986     -0.002175
O	      8.35676      6.29532      8.41527        -0.032934      0.046415      0.049295
O	      2.02468      6.40366      6.31932         0.042238     -0.129623      0.037827
O	      4.11189      8.46038      6.44941         0.102583     -0.033636     -0.034261
O	      4.20907      6.33778      8.44452        -0.013337      0.155439      0.051772
O	      6.28202      8.43135      8.60841         0.100214     -0.013831     -0.125660
O	      6.30212      6.34334     10.71026        -0.059468      0.110139     -0.112622
O	      8.31091      8.42375     10.59353         0.052953     -0.025206     -0.030510
