# total energy = -220.65569433 eV
 
CRYSTAL
PRIMVEC
-0.000772 6.190496 6.311884 
6.393412 0.000405 6.310385 
4.270282 4.134146 -0.007677 
PRIMCOORD
36 1
Li	      8.53129      8.34060     12.52082         0.006609      0.041980     -0.093811
Li	      6.33921      4.17670      2.20233        -0.016600      0.052185     -0.003710
Li	      4.23193      2.13206      2.17348        -0.000460     -0.010639      0.016888
Li	      8.46187      4.09557      4.27515        -0.042039      0.032225     -0.003470
Li	      6.45709      8.29645     10.48336        -0.002979      0.012192      0.037830
Li	      2.18518      4.06967      2.10285         0.068656     -0.015912     -0.070031
Li	      4.32254      4.08941      4.10074         0.046269      0.000554     -0.026287
Li	      6.44490      4.10080      6.26455         0.003335     -0.021641     -0.027770
Li	     10.59208      8.25565     10.49281        -0.034592     -0.010358      0.061840
Sc	      6.37909      8.27165      6.30420        -0.088743      0.068828      0.009940
Cr	     10.63934      4.13427      6.28608         0.012154     -0.060274     -0.020919
Fe	      0.07161      2.04238      2.11947        -0.046924      0.081432     -0.034549
Fe	      2.19323      2.02943      4.13087         0.024540      0.094155      0.031271
Fe	      4.30771      1.99748      6.23124         0.021329      0.093420      0.038304
Fe	      4.21467      6.23481      6.28263        -0.029034     -0.011480      0.024188
Fe	      8.52765      8.29322      8.53306        -0.050661      0.068439     -0.148247
Fe	      6.37584      6.13913      8.58956        -0.009521     -0.012265     -0.139356
Ni	      8.53992      6.19991     10.48180        -0.013410     -0.084823      0.026946
O	      2.02622      2.09063      2.21620         0.129459      0.002136     -0.139682
O	      4.28754      4.22447      1.96880        -0.014006     -0.087560      0.027001
O	      4.16439      2.10294      4.29826         0.130297     -0.016363     -0.157560
O	      6.41971      4.36514      4.18139        -0.036180     -0.425753      0.062526
O	      6.30497      2.03011      6.36463         0.129843     -0.047680     -0.026827
O	      8.65552      4.19667      6.29283         0.012061     -0.106753      0.036668
O	      2.14196      3.96238      4.22813        -0.032021      0.215692      0.022271
O	      4.26461      6.17340      4.22926        -0.001678     -0.006441     -0.023195
O	      4.20234      4.15866      6.39027         0.059606     -0.088833      0.035936
O	      6.37817      6.17305      6.28477         0.019444     -0.013719      0.068756
O	      6.30405      4.12467      8.40561         0.018906     -0.050473      0.003394
O	      8.50262      6.21831      8.38237         0.004528     -0.062302     -0.130989
O	      2.14523      6.19865      6.23274        -0.052680      0.065836      0.192074
O	      4.29644      8.24367      6.33424        -0.069168      0.087598     -0.044450
O	      4.37283      6.16336      8.29892        -0.075152      0.048560      0.059612
O	      6.46919      8.14619      8.40398        -0.019942      0.071492      0.018197
O	      6.47835      6.15236     10.52443        -0.075662      0.016814      0.163677
O	      8.50290      8.23810     10.43779         0.024418      0.079733      0.153534
