# total energy = -202.65329880 eV
 
CRYSTAL
PRIMVEC
0.036463 6.168870 6.283098 
6.192827 0.037664 6.282178 
4.166883 4.150691 -0.013388 
PRIMCOORD
36 1
Li	      6.16089      6.19397     12.44328         0.015611      0.024795      0.064544
Li	      6.29510      8.14165     10.39406        -0.018075      0.027591     -0.077838
Li	      4.08276      4.15872      4.21885         0.017037     -0.048792     -0.041966
Li	      6.26542      4.12315      6.28665        -0.037033      0.022439      0.048540
Li	      6.21100      4.23568     10.45234         0.027853     -0.031605     -0.031472
Li	      8.19614      6.20580     10.45384        -0.138987     -0.025097     -0.062949
Li	      2.06789      4.12038      6.23416         0.018437     -0.007343     -0.091909
Li	      8.35720      8.22705      8.36729         0.048090     -0.041769     -0.074304
Li	      6.19802      6.31096      8.52055         0.056143     -0.007293     -0.001294
Sc	      6.25040     10.21847      8.35164        -0.177734     -0.098111      0.187468
Mn	      2.07698      2.11964      4.21276         0.040690      0.040977     -0.024584
Cr	      4.19970      6.10532      6.25128         0.270231     -0.415197     -0.100227
Co	      6.19371      2.13533      8.38062        -0.233758      0.014852     -0.072886
Cu	      8.31198      8.34187     12.45491        -0.076890     -0.145100      0.308631
Ni	      8.37611     10.34237     10.50227         0.993408     -0.419331      0.080608
Ni	      4.21703      8.24587      8.34787        -0.165317      0.178168      0.156867
Ni	      8.26589      4.22787      8.39683        -0.011321      0.034799      0.080090
Ni	      4.17473      2.11776      6.31278        -0.156212      0.408109     -0.111004
O	      6.07750      6.20909     10.48262         0.465847      0.241816     -0.039197
O	      8.28538      8.44859     10.52084        -0.265238     -0.665248      0.148136
O	      2.02504      2.10130      2.22845        -0.032744     -0.158979     -0.151990
O	      4.15723      4.24752      2.11508         0.126609      0.140749     -0.047441
O	      4.03862      1.99861      4.21107        -0.226842      0.662827     -0.002346
O	      6.39463      4.29183      4.15981        -0.778894      0.169480     -0.167243
O	      6.24364      2.08583      6.51732         0.233351     -0.050344      0.256857
O	      8.28258      4.16464      6.31923        -0.027584     -0.272375     -0.414700
O	      2.09743      3.98986      4.15587        -0.058260      0.001568      0.273604
O	      4.32511      6.17531      4.14000        -0.046068      0.039337      0.036938
O	      4.16663      4.26375      6.23359        -0.030881      0.285549      0.023569
O	      6.14951      6.25839      6.11150        -0.163598     -0.001766     -0.012343
O	      6.24295      3.93915      8.40198        -0.195231     -0.141715      0.014702
O	      8.45648      6.23616      8.31482         0.208672      0.184523      0.239664
O	      2.26145      6.26755      6.23474        -0.031890      0.072895     -0.065058
O	      4.08492      8.11505      6.33984         0.032383      0.052320     -0.404472
O	      4.18554      6.19299      8.23188         0.015648     -0.135520      0.104277
O	      6.19309      8.26618      8.34927         0.302543      0.062790     -0.029274
