# total energy = -202.23467761 eV
 
CRYSTAL
PRIMVEC
0.008246 6.165245 6.259602 
6.324222 -0.019712 6.288771 
4.207394 4.121164 -0.005027 
PRIMCOORD
36 1
Li	      6.37401      6.23929     12.45188        -0.049320      0.001366     -0.009634
Li	      8.30854      2.03850      6.27418        -0.027483      0.018831      0.024151
Li	      4.21927      8.21624      8.29995        -0.009476      0.010006      0.001540
Li	      6.29094      2.02521      4.34540        -0.044347     -0.036027     -0.042714
Li	      6.29888      2.04311      8.19274        -0.045042      0.008109      0.026315
Li	      4.34569      2.03006      6.32757        -0.000790     -0.016074      0.001349
Li	      6.32016      3.94380      6.36445         0.047507      0.004830     -0.007654
Li	      8.36936      6.21619     10.41838        -0.003542     -0.013465     -0.093496
Li	      6.38403      6.12106      8.39539         0.099905      0.036648      0.001030
Sc	      2.11349      2.02270      4.15488         0.019470      0.031672     -0.028703
Mn	      6.31655      8.23686      6.28431         0.074640     -0.123001      0.227614
Cr	      4.21690      4.07827      4.14076         0.002710     -0.034515      0.036650
Co	      8.37066      4.17181      8.14038         0.051891     -0.106940      0.762721
Cu	      2.10514      6.14263      8.32209        -0.055717      0.219324      0.077929
Cu	      6.29288      4.17177     10.44493         0.024227      0.024895     -0.114486
Ni	      4.26869      6.14227     10.48606        -0.003238      0.093385      0.112136
Ni	      4.20691      6.20124      6.33951         0.070409     -0.016484      0.022094
Ni	      8.45432      8.15794      8.37369         0.037698     -0.241721     -0.094664
O	      6.26038      6.12774     10.45621         0.101444     -0.081073     -0.016422
O	      8.54882      8.22777     10.39226         0.014966     -0.083643      0.194884
O	      2.15734      2.23507      2.09626        -0.228707     -0.205938      0.049907
O	      4.16705      4.13861      2.27673         0.112353     -0.082497      0.046670
O	      4.19215      2.15149      4.21270         0.017264      0.171868     -0.011457
O	      6.25054      4.07848      4.07155        -0.113943      0.010704      0.026541
O	      6.34638      2.02925      6.25693        -0.017755      0.037729      0.030016
O	      8.38780      4.09992      6.33116         0.003821      0.056988     -0.746996
O	      2.19361      4.13671      4.30314        -0.031261      0.006556      0.054195
O	      4.23625      6.00717      4.28598        -0.013909      0.007159     -0.089533
O	      4.09772      4.11043      6.22006        -0.038766     -0.054575     -0.197232
O	      6.26186      6.31781      6.27536         0.074406      0.105967     -0.127363
O	      6.36223      4.09112      8.48474         0.151930     -0.110441      0.171322
O	      8.43216      6.00107      8.36291         0.028095      0.221720     -0.113240
O	      2.15591      6.06092      6.38053        -0.104899     -0.058947     -0.106466
O	      4.40328      8.23283      6.16598         0.037317      0.129873     -0.059711
O	      4.09711      6.10907      8.39827         0.013385      0.140082      0.111667
O	      6.37293      8.24935      8.19143        -0.195244     -0.072371     -0.118961
