# total energy = -203.27999640 eV
 
CRYSTAL
PRIMVEC
0.024397 6.219881 6.234444 
6.222588 -0.001033 6.259961 
4.145611 4.160863 0.002017 
PRIMCOORD
36 1
Li	      6.27469      4.15790      2.17146         0.136939     -0.024663     -0.021953
Li	      4.12132      2.07932      2.21655        -0.020780      0.049077      0.054527
Li	      4.07199      0.07912      4.08400        -0.022268      0.038412     -0.080019
Li	      4.15533      6.22176      2.18778        -0.024253     -0.042339      0.048395
Li	      4.21875      4.13328      4.13083        -0.039016      0.001218     -0.086800
Li	      4.09545      2.13112      6.19923        -0.033676      0.013205      0.007987
Li	      6.20815      4.15948      6.15061        -0.006605     -0.021812     -0.040126
Li	      2.17417      6.18881      4.12321         0.089809     -0.090324     -0.058277
Li	      4.18176      6.18345      6.20947         0.032388     -0.019548      0.031998
Sc	      6.25261      6.25268     12.43299        -0.092862      0.012412      0.064455
Mn	      4.17720      4.14320      8.32098         0.201930      0.031113      0.138167
Cr	      2.10560      8.27385      6.25566         0.019313      0.106458      0.009345
Co	      2.10192      4.15030      2.06855        -0.051452     -0.029171      0.034723
Cu	      6.14937      2.17948      4.18227         0.127271     -0.065880     -0.018629
Cu	      4.16414      8.24350      4.13649         0.020802      0.084134      0.012033
Cu	      2.13127      4.14353      6.23610        -0.051703      0.038477      0.103164
Ni	      6.24759      6.18519      4.18894         0.079074      0.015612      0.020389
Ni	      6.23439      6.21551      8.31167        -0.057427      0.020581     -0.009832
O	      6.23243      6.35172      6.30453        -0.005743      0.144745     -0.235170
O	      4.29082      6.03286      8.33056        -0.373343     -0.104152      0.026000
O	      6.40502      8.30286      8.47918        -0.122433      0.100668      0.091508
O	      2.10330      2.22666      2.00576        -0.050718      0.007221     -0.105799
O	      3.92245      4.19740      2.04934         0.110687      0.004147     -0.157045
O	      4.13441      2.07302      4.17430         0.047229      0.047538      0.057787
O	      6.19665      4.18991      4.15092         0.000491      0.003077      0.028754
O	      6.32379      2.09361      6.14322         0.022720     -0.019204      0.005936
O	      8.26822      4.07647      6.44222         0.052208     -0.079912     -0.153686
O	      2.01038      4.08515      3.95672         0.116857      0.128839     -0.074189
O	      4.26068      6.27810      4.16143        -0.165779      0.063377      0.039763
O	      4.10153      4.13669      6.46370        -0.071217      0.026361     -0.038819
O	      6.19372      4.13335      8.38856        -0.108126     -0.124028     -0.100821
O	      8.18823      6.21167      8.33346         0.320526      0.001277      0.031435
O	      2.06715      6.24424      6.30277         0.021037     -0.057362      0.023472
O	      4.17056      8.30664      6.14259        -0.009271     -0.012807      0.066655
O	      6.21703      6.19488     10.34308         0.001757     -0.189206      0.279536
O	      8.37226      8.27984     10.40111        -0.094366     -0.057541      0.005137
