# total energy = -136.21336830 eV
 
CRYSTAL
PRIMVEC
0.000174 4.191154 -0.000082 
-4.188061 -0.000363 7.902446 
4.160533 0.000079 3.937020 
PRIMCOORD
24 1
Li	     -1.05213      3.14457      4.93531        -0.002315      0.001332     -0.001697
Li	     -1.04305      3.14360      8.87136         0.012986      0.004306      0.029226
Li	      1.03925      1.05043      0.98353         0.002796     -0.001761      0.000755
Li	      1.01176      1.05060      4.95302        -0.004330     -0.002031     -0.020897
Li	      1.04011      1.04960      8.85423         0.010570     -0.001155      0.020120
Li	      3.09614      3.14626      4.93522        -0.012633      0.000011     -0.028118
Mn	      0.98288      3.14585      2.95680         0.029013     -0.000380      0.012781
Mn	     -3.08905      3.14506      6.91247        -0.031904      0.000198     -0.011680
Mn	     -1.06753      1.04950     10.85482        -0.000212      0.000426     -0.001977
Ni	      1.02757      3.14573      6.90348        -0.002711     -0.003270      0.000362
Ni	     -1.09399      1.05013      2.94864         0.043068     -0.001471     -0.020630
Ni	     -1.01287      1.04914      6.92210        -0.042855      0.000631      0.017931
O	     -1.11713      3.14464      6.92570        -0.098309      0.002375     -0.003779
O	     -1.06793      3.14512     10.85448         0.001831     -0.000182      0.000186
O	      1.10986      1.05031      2.94363        -0.027290     -0.000411      0.007551
O	      1.02696      1.05015      6.90374        -0.001022     -0.001634     -0.000924
O	     -3.21736      1.04932      6.92606         0.027655      0.001265     -0.006490
O	     -0.98857      3.14572      2.94427         0.095525      0.000775      0.003995
O	     -1.05349      1.04957      4.93550        -0.000032      0.000085     -0.001352
O	     -1.06820      1.04910      8.95620         0.013088      0.001305      0.045315
O	     -3.14772      3.14520      8.88566        -0.000148     -0.000534      0.001875
O	      1.03016      3.14609      4.82951        -0.003120     -0.000516     -0.075196
O	      1.02381      3.14487      8.97709         0.001713      0.000342      0.077122
O	      3.12095      1.05030      4.85084        -0.011361      0.000294     -0.044482
