# total energy = -203.58834478 eV
 
CRYSTAL
PRIMVEC
0.027863 6.311912 6.175901 
6.233569 0.041557 6.161835 
4.178485 4.221038 0.004953 
PRIMCOORD
36 1
Li	      6.23927      0.09734      6.11749        -0.011649     -0.049039     -0.115806
Li	      8.39765     10.45721     10.30915         0.102005     -0.072100      0.111708
Li	      6.40905      8.30258     10.32154        -0.018707     -0.146867     -0.033249
Li	      6.21138      2.24717      8.17780         0.011198      0.127732      0.066458
Li	      6.28929      4.19910      6.23274        -0.010542      0.045672     -0.014514
Li	     10.34313      8.46315     10.28542        -0.020287      0.137551     -0.007405
Li	      8.26937      6.51845     10.32570        -0.069113     -0.020829     -0.032940
Li	      4.15123      6.40331      6.15572         0.017988     -0.011076     -0.083228
Li	      4.20331      4.25672      8.26108         0.038111     -0.100820      0.052310
Sc	      4.25217      4.33675      4.19560        -0.123237     -0.000291      0.072700
Mn	      8.29549      4.29194      8.21394        -0.105010      0.025360      0.088733
Cr	      4.17246      8.35220      8.20051        -0.059439      0.457874      0.015011
Co	      2.07591      2.14141      4.08826        -0.098789      0.010512      0.048312
Cu	      8.25027      8.41681     12.25115         0.006734      0.154208      0.113136
Cu	      6.32033     10.48150      8.21791         0.011450      0.075072     -0.097939
Cu	      4.23766      2.09590      6.14301         0.091880     -0.013848     -0.080411
Cu	      6.25674      6.30123      8.30116        -0.159840      0.186538     -0.214899
Ni	      6.25665      8.44382      6.16086        -0.061570     -0.009421     -0.107476
O	      2.09521      6.30116      6.30073         0.024101     -0.126231      0.234571
O	      4.12915      6.47925      8.23134        -0.011634     -0.441093      0.036651
O	      6.26818      6.33733     10.18397         0.002965     -0.034125      0.363462
O	      8.34741      8.45425     10.37621        -0.028976      0.040890     -0.162331
O	      2.11134      2.30291      2.09526         0.042950     -0.086765     -0.146343
O	      4.09874      4.03920      2.08883         0.085681     -0.030567     -0.007821
O	      4.04469      2.15277      4.02796        -0.057831      0.010723     -0.125702
O	      6.28742      4.43200      3.97177         0.111792     -0.073202     -0.112038
O	      6.24428      2.14848      6.14654        -0.030418     -0.005412     -0.022746
O	      8.34313      4.26699      6.31084         0.030649      0.076941     -0.085199
O	      2.10379      4.12743      4.04036         0.093666     -0.016804     -0.093724
O	      4.32633      6.33940      4.12733         0.062359     -0.025602     -0.043844
O	      4.14245      4.10841      6.22077         0.136734      0.124977     -0.035043
O	      6.36676      6.39577      6.01859        -0.092447     -0.066352      0.044604
O	      6.39643      4.38880      8.23270         0.040506     -0.393802     -0.126633
O	      8.37920      6.20029      8.11291         0.069429      0.062743      0.336648
O	      4.13978      8.44306      6.35928         0.028495     -0.036900      0.028139
O	      6.13006      8.25503      8.19882        -0.049205      0.224351      0.136849
