# total energy = -202.99989744 eV
 
CRYSTAL
PRIMVEC
0.011931 6.387533 6.210327 
6.103117 0.030770 6.190902 
4.092200 4.269033 -0.002596 
PRIMCOORD
36 1
Li	     10.05899      4.26155      6.27475        -0.025048      0.057889     -0.009925
Li	      4.04518      2.22646      2.07897         0.008681      0.062397      0.036418
Li	      4.09721      0.07790      4.17127        -0.000467      0.044317      0.094602
Li	      4.05200      6.33908      2.11580         0.050833     -0.060179     -0.048546
Li	      2.12006      4.26890      2.05203        -0.029835      0.002616      0.004798
Li	      4.03516      4.28720      4.08700         0.015635     -0.020007     -0.011585
Li	      4.11653      2.13399      6.20590        -0.000346     -0.047655     -0.087377
Li	      4.09761      8.46559      4.09310        -0.031678      0.037000     -0.044351
Li	      4.15750      4.26904      8.24187        -0.002886     -0.026233      0.016578
Sc	      6.06648      4.33797      2.10869        -0.190043      0.052603     -0.030596
Mn	      6.06553      2.11317      4.11724        -0.006312     -0.158423      0.193388
Cr	      2.03844      4.27061      6.18848         0.053477      0.006658     -0.039642
Co	      8.16623      6.42403     10.28522         0.158675     -0.180838      0.469358
Cu	      2.09756      2.22955      0.04273        -0.116227     -0.034164     -0.087744
Cu	      2.09974      2.24553      4.06083         0.077482      0.033854      0.045846
Cu	      6.12157      4.25209      6.21025        -0.034829     -0.017553      0.023079
Cu	      4.10130      6.39062      6.17379        -0.045734      0.011301     -0.005805
Cu	      6.10129      6.35362      8.27717         0.247640     -0.017914      0.103633
O	      6.10432      6.46562      6.07117         0.114775      0.323022     -0.218959
O	      6.13200      4.39551      8.14852        -0.027632      0.193924      0.098570
O	      8.09974      6.42624      8.48262        -0.272586     -0.002285     -0.423558
O	      6.21157      6.54881     10.34079        -0.168173      0.023247      0.149305
O	      8.06682      8.31834     10.38267         0.015397      0.239600      0.089750
O	      2.03343      2.13742      2.12553        -0.017982     -0.003434     -0.030714
O	      4.12421      4.30569      2.01608         0.113359     -0.051567      0.050559
O	      4.16863      2.09492      4.17876        -0.046915      0.012321     -0.069132
O	      6.14849      4.04443      4.15798         0.036231      0.007934     -0.129719
O	      6.18343      2.21990      6.07332        -0.013012     -0.304645     -0.141243
O	      8.07830      4.20940      6.17193         0.140255      0.077775     -0.018783
O	      2.00737      4.49103      4.23724        -0.090229     -0.093137     -0.010850
O	      4.00973      6.41607      4.17434         0.034264      0.032171      0.006738
O	      4.05465      4.34386      6.20378        -0.064197     -0.000687     -0.038739
O	      2.10278      6.32038      6.10580        -0.105791     -0.010276      0.165676
O	      4.08703      8.44639      6.19539         0.076798      0.000858      0.008124
O	      4.14880      6.39158      8.17974         0.183409     -0.059831     -0.020847
O	      6.14573      8.52161      8.32401        -0.036988     -0.130660     -0.088306
