# total energy = -206.45063186 eV
 
CRYSTAL
PRIMVEC
0.003496 6.285796 6.107097 
6.250252 0.007657 6.103137 
4.162618 4.183572 0.009306 
PRIMCOORD
36 1
Li	      0.03840      6.25300      6.08023        -0.066185      0.017497     -0.043908
Li	      2.15610      8.28965      6.05735        -0.014297      0.057921      0.061037
Li	      8.29295      4.17877      4.09193         0.104940      0.072784      0.016299
Li	      6.28047      2.14206      4.10343        -0.057584     -0.077617      0.017024
Li	      2.10676      4.16296      2.06120        -0.020597      0.080440     -0.104729
Li	      6.24643      6.26949      4.08460         0.053940      0.076369      0.030285
Li	      4.18676      4.16257      4.10390        -0.039184     -0.118028      0.044740
Li	      2.08269      6.29903      4.22199        -0.019394      0.038548      0.037205
Li	      4.06436      6.33044      6.07429         0.075595     -0.020789      0.070567
Sc	      4.23421      6.18020      2.06129        -0.332528      0.054782     -0.259199
Mn	      6.25819      6.25652      8.16931         0.279852      0.090600      0.004959
Cr	      4.16271      8.36439      4.15819        -0.084591      0.156352      0.219366
Co	      4.09501      2.14413      2.12099         0.060887     -0.145742      0.761477
Co	      4.15044      2.07532      6.01151         0.168622      0.527196      0.187116
Cu	      6.24627      4.20175      2.06380        -0.028508      0.091924      0.074363
Cu	      6.26057      4.18497      5.93924         0.050976     -0.049960     -0.027054
Ni	      2.08257      4.24216      6.08998         0.081949     -0.209509      0.027409
Ni	      8.31216      8.40962      8.19116         0.013733     -0.184109     -0.234074
O	      2.10505      6.22328      6.27860        -0.043734     -0.000354     -0.144104
O	      8.51180      8.39354     10.20153         0.148753     -0.002662      0.053138
O	      2.11558      2.12578      1.99460        -0.109116     -0.154281      0.009450
O	      4.14323      4.14421      2.07218         0.158855      0.198180     -0.090672
O	      4.14943      2.11419      4.04708        -0.072322      0.002579     -0.729363
O	      6.23824      4.20576      3.92762        -0.011008      0.039546      0.111603
O	      6.09558      2.16404      6.06409         0.145573      0.196270     -0.000747
O	      8.22084      4.43408      6.07269        -0.349151     -0.755513     -0.038729
O	      1.88487      4.21651      4.11987        -0.063985      0.015577      0.023078
O	      4.13795      6.44144      4.08447         0.009108      0.089544      0.026255
O	      4.21023      4.00856      6.10113         0.168208      0.323219      0.001560
O	      6.37334      6.25593      6.18560        -0.204380     -0.094864     -0.001058
O	      6.22672      4.27811      8.22504         0.119178     -0.078893     -0.005601
O	      8.26306      6.31526      7.98765        -0.056705     -0.094559      0.191661
O	      4.18669      8.40168      6.18350        -0.028974     -0.015455     -0.232532
O	      4.33462      6.31224      8.11411        -0.097630     -0.022598     -0.012494
O	      6.24434      8.19582      8.14484         0.022613      0.049015     -0.025997
O	      6.28567      6.17564     10.06020         0.037088     -0.153409     -0.018329
