# total energy = -204.93533664 eV
 
CRYSTAL
PRIMVEC
0.023750 6.303821 5.995348 
6.507476 0.020942 5.999067 
4.348596 4.215343 0.003321 
PRIMCOORD
36 1
Li	      6.48431      4.17413      2.04409         0.160526      0.040707     -0.098520
Li	      6.63751      8.35938      9.88372         0.018292      0.005746      0.018252
Li	     10.67392      6.39802      8.11891         0.016502     -0.026041      0.124109
Li	      8.60971      4.34226      8.10369        -0.104373     -0.062429     -0.072918
Li	      4.27045      4.21746      3.95308         0.024228      0.088075     -0.038408
Li	      6.59989      4.28020      9.88772        -0.052846     -0.106075      0.074912
Li	      8.59196      6.29583      9.89549         0.027997      0.073873      0.180348
Li	      8.84044      8.27700      8.11691         0.111133      0.142730      0.027238
Li	      6.63842      6.27922      8.10518        -0.171617     -0.038536     -0.009499
Sc	      6.49080      4.13138      6.09125        -0.162362      0.016780      0.166957
Mn	      4.38825      2.19359      1.98070        -0.133306     -0.907689     -0.119092
Cr	      2.22343      8.38435      5.95626         0.112167     -0.705022      0.007653
Co	      6.46862      0.07032      5.97905        -0.074165      0.416369     -0.429139
Co	      4.34210      6.22977      5.96110         0.188592      0.345106      0.555420
Cu	      2.16140      2.12417      3.94219        -0.414643     -0.307584     -0.031723
Cu	      8.64770      6.36300      6.07568         0.142012     -0.015544     -0.156211
Cu	      2.24118      4.16185      5.99196        -0.073964      0.181133      0.208626
Ni	      4.36490      6.30520      9.92147        -0.088939      0.100852     -0.500329
O	      8.67373      6.33241      7.94796        -0.019918     -0.119260     -0.057552
O	      6.29495      8.43250      7.90661         0.179702      0.094136     -0.105417
O	      6.42545      6.37159     10.13966         0.383869     -0.168439      0.066806
O	      2.41975      2.16161      1.92138        -0.043961      0.245230     -0.043086
O	      4.41226      4.10171      1.88394        -0.092265      0.066917      0.075809
O	      4.25300      2.07613      3.94003         0.061740      0.202506      0.263965
O	      6.63128      4.32031      3.95760        -0.174606      0.306859     -0.026199
O	      6.73535      1.99418      6.05264         0.077641      0.906673      0.090745
O	      8.65014      4.17038      5.98551         0.303662      0.251509      0.288198
O	      2.19952      4.10201      4.09979         0.027386     -0.153192      0.064041
O	      4.45777      6.29324      4.19155         0.180748     -0.096170     -1.018886
O	      4.35032      4.18161      6.04244        -0.118024      0.036336     -0.074703
O	      6.31827      6.26002      5.95134        -0.375959      0.031326     -0.141164
O	      6.51373      4.19996      8.02015         0.089376      0.005052     -0.029266
O	      2.36722      6.48055      5.94083        -0.017283     -0.037759     -0.042369
O	      4.24750      8.57657      6.04339         0.078089     -1.033948      0.154326
O	      4.35673      6.49549      7.80678        -0.008854      0.376671      0.581507
O	      8.69545      8.51875     10.11566        -0.056578     -0.156897      0.045567
