# total energy = -206.30110123 eV
 
CRYSTAL
PRIMVEC
-0.040344 6.359631 6.240985 
6.113444 -0.012597 6.212617 
4.071695 4.216933 -0.004223 
PRIMCOORD
36 1
Li	      0.01993      0.02061      0.03103         0.077187     -0.030159      0.036425
Li	      4.11306      8.43360      8.21715        -0.006413      0.044577     -0.029275
Li	      6.05682      8.44019     10.34912        -0.014818      0.084602     -0.016687
Li	      6.14638      6.26943      4.26241         0.024132     -0.036354      0.008103
Li	      4.03139      4.30467      4.20005         0.049334      0.024160     -0.022871
Li	      6.03033      4.26449      6.22510        -0.035886      0.055835     -0.002136
Li	      6.13934      8.32043      6.29312        -0.025834     -0.052723     -0.066281
Li	      4.14247      6.33701      6.25758        -0.026651      0.025120      0.001411
Li	      6.05731      6.47475      8.20564         0.102501     -0.039949     -0.080194
Sc	      4.05702      8.42509      4.25262         0.005715     -0.062429      0.162552
Mn	      4.09104      0.06242      4.12991        -0.278996     -0.096563      0.208476
Cr	      8.14842      4.20859      8.24703        -0.035646     -0.442681     -0.274033
Co	      6.03776     10.51644      8.29499         0.444944     -0.249899      0.124501
Co	     10.14937      6.29886      8.28074        -0.065514     -0.098752      0.058664
Cu	      8.11053      2.10716      6.23869         0.059987     -0.232764      0.006010
Cu	      4.04167      2.14303      6.17944        -0.027464     -0.054266     -0.070268
Cu	      1.96544      6.31030      4.23698        -0.098439     -0.032354     -0.059315
Cu	      4.03660      4.28414      8.18774         0.056039     -0.005826     -0.080124
O	      4.05975      4.11714      6.23531         0.033041      0.068085      0.199991
O	      6.15378      6.32581      6.22530        -0.043870     -0.023959      0.074715
O	      2.02322      6.47055      6.44362         0.007923      0.077561      0.355284
O	      6.16508      8.59670      8.26467        -0.066191      1.124125      0.141234
O	      1.88323      2.17129      2.03140         0.030871     -0.325788      0.236850
O	      4.05342      4.36082      2.09347         0.790482     -0.039978      0.093912
O	      4.11069      1.92512      4.21642         0.055649      0.060820     -0.047070
O	      6.23499      4.25771      3.95463        -0.035706     -0.129799     -0.373282
O	      6.10758      2.09156      6.36272        -0.093589      0.011149      0.011156
O	      8.11213      4.15749      6.14142         0.019902      0.054221     -0.072052
O	      2.01089      4.29053      4.00078         0.192319      0.088807      0.240115
O	      3.91410      6.35141      4.04051        -0.036428     -0.185269     -0.083384
O	      6.08386      4.03434      8.31278        -0.025722      0.003834     -0.223064
O	      8.22575      6.19042      8.16460         0.001497     -0.048160     -0.000402
O	      3.96926      8.43972      6.24743         0.062630      0.025800      0.183205
O	      4.04945      6.39549      8.49898        -0.940403      0.293607     -0.253061
O	      6.04213      6.29992     10.35368         0.067129      0.245842     -0.068947
O	      8.06798      8.56264     10.40965        -0.223711     -0.100476     -0.320158
