# total energy = -205.42859387 eV
 
CRYSTAL
PRIMVEC
-0.010467 6.165361 6.256176 
6.105470 -0.025000 6.270776 
4.074319 4.123779 -0.020560 
PRIMCOORD
36 1
Li	      8.10587      8.22532     12.45978        -0.032830     -0.027984     -0.125267
Li	      2.04434      6.12140      8.30878        -0.083890     -0.034788     -0.135522
Li	      6.17074      8.21699     10.44971         0.049981     -0.012444      0.026010
Li	      2.03972      4.11303      2.10029        -0.014010      0.033667     -0.040247
Li	      8.18623      6.15260      6.29384         0.013981     -0.030269      0.012356
Li	      4.01376      8.22257      4.21255        -0.027766      0.005508      0.092043
Li	      2.05155      6.16590      4.14701        -0.030142      0.028928      0.157053
Li	      1.98753      4.15422      6.25216         0.052710      0.089876      0.011989
Li	      8.13075      8.20430      8.40929         0.038308      0.014434     -0.004651
Sc	      6.20182      6.14350      8.39179        -0.022923     -0.236515     -0.258889
Mn	      4.05470      4.09608      4.16288         0.147753      0.021225      0.399718
Cr	      4.02653      2.07066      2.02639         0.188808      0.096609     -0.193822
Co	      6.20855      6.18977     12.45023        -1.175331     -0.021969     -0.268089
Co	      6.13913      4.05149      6.24351        -0.183807      0.140024     -0.096035
Ni	      8.12264     10.21468     10.40707        -0.062812      0.154637      0.129921
Ni	      6.07965      2.07016      8.34396         0.066099     -0.058935     -0.057849
Ni	      6.10741      6.18532      4.18704         0.013470     -0.022261      0.156869
Ni	      3.98950      6.16358      6.24161        -0.107652     -0.009193     -0.051001
O	      8.15622      8.32305     10.37190        -0.121908     -0.080680      0.110226
O	      2.13254      2.05486      2.16661        -0.095133      0.009404     -0.000097
O	      4.07579      4.08412      2.16760         0.064829     -0.148336     -0.294339
O	      4.06890      2.11992      4.04037         0.052952      0.008141     -0.005325
O	      6.06300      4.11830      4.30763        -0.207098      0.018250     -0.074667
O	      6.10340      2.09963      6.32107         0.012313     -0.582639     -0.010492
O	      8.07892      4.10953      6.12636         0.452617     -0.040456     -0.124741
O	      2.18841      4.05591      4.24140        -0.029756      0.085376     -0.106474
O	      4.08568      6.02973      4.16970        -0.034021      0.012357     -0.124527
O	      4.19760      4.11368      6.08626        -0.126107     -0.255203     -0.043752
O	      6.05379      5.98042      6.24701         0.124212      0.061764      0.063507
O	      6.11911      4.06494      8.14419         0.005891      0.234130      0.150360
O	      8.16753      6.20268      8.37143         0.126143     -0.091929     -0.028089
O	      1.89431      6.18875      6.25501         0.441833     -0.101839      0.001949
O	      4.02344      8.26228      6.38386         0.067005      0.626169     -0.045710
O	      4.02415      6.25235      8.33394         0.074903      0.067214      0.053896
O	      5.92439      8.20167      8.30770        -0.126561     -0.048353      0.069318
O	      6.04642      6.12372     10.48722         0.487936      0.096080      0.654369
