# total energy = -209.69394282 eV
 
CRYSTAL
PRIMVEC
0.025670 6.246466 6.185775 
6.255537 0.027671 6.183384 
4.180636 4.172895 0.008694 
PRIMCOORD
36 1
Li	      4.16435      4.16398      0.15786         0.071781     -0.089036     -0.024763
Li	      2.11178      2.09530      0.11202        -0.001098      0.020772     -0.042385
Li	      4.12076      2.15677      2.05690         0.003057     -0.005291     -0.027982
Li	      0.09191      2.00751      1.99528         0.031513      0.025305     -0.015802
Li	      2.11577      4.14755      2.04456        -0.079863      0.007227     -0.011249
Li	      2.10349      2.14463      4.05629        -0.029685      0.044317     -0.077789
Li	      4.20820      4.07910      4.06084         0.036445     -0.075020     -0.044303
Li	      6.25498      8.34620      6.21074        -0.119955      0.049193      0.001592
Li	      4.19375      4.17818      8.19071         0.062116     -0.024443      0.013852
Sc	      8.37572      6.26142     10.27394        -0.092638      0.157366     -0.017906
Mn	      0.05242      4.13146      4.11796         0.034745      0.124268      0.152255
Cr	      8.31535      4.20046      4.13712        -0.039138      0.004440     -0.115052
Co	      2.04293      0.07768      2.03875        -0.030667     -0.265492     -0.149058
Co	      6.19826      2.16397      4.10285        -0.045339      0.172226      0.194951
Co	      6.24594      4.21178      6.25205         0.063537     -0.750835      0.062606
Cu	      4.19939      6.27123      6.21332        -0.045722     -0.091267      0.064616
Ni	      8.34532      6.30069      6.22209         0.032696      0.021315      0.157779
Ni	      6.28339      6.27949      8.23353        -0.104534      0.179125      0.021958
O	      4.21009      8.27771      6.04063         0.053100      0.104079     -0.098828
O	      2.09161      1.87446      2.05294         0.031129      0.139791      0.026918
O	      4.38561      4.17002      2.07121         0.046789      0.022747      0.000466
O	      4.20279      2.00499      4.17595         0.432077     -0.130711     -0.178791
O	      6.33075      4.17910      4.01602         0.219676     -0.293060     -0.093837
O	      6.23472      2.23326      6.05474        -0.091535      0.292191     -0.780978
O	      8.15560      4.22059      6.12391        -0.001935      0.092123     -0.019712
O	      1.96604      4.19888      4.11123        -0.035726     -0.185653      0.063082
O	      4.18421      6.40386      4.19696         0.092064     -0.079258     -0.117183
O	      4.38526      4.20966      6.14891        -0.078503      0.149192     -0.025605
O	      6.23601      6.14061      6.24398        -0.012146      0.217847     -0.092349
O	      6.27822      4.23372      8.34195         0.010325     -0.146433      0.089327
O	      8.32229      6.30107      8.25514         0.127988     -0.061120      0.070808
O	      2.17190      6.22099      6.27924        -0.021852     -0.002674      0.054353
O	      4.07888      6.26125      8.25004        -0.053553      0.019597      0.132313
O	      6.30148      8.42344      8.38830        -0.144051      0.065985      0.637785
O	      6.21337      6.19093     10.32448        -0.146012      0.111415      0.151063
O	      8.46225      8.40347     10.32049        -0.175087      0.179770      0.037845
