# total energy = -208.67911905 eV
 
CRYSTAL
PRIMVEC
0.034276 6.228131 6.365679 
6.141233 0.029942 6.369578 
4.116852 4.177661 -0.002564 
PRIMCOORD
36 1
Li	      4.16248      4.15121      0.11960        -0.117999      0.044486     -0.086611
Li	      6.11191      4.20711      2.10631         0.056443     -0.078025      0.168632
Li	      2.11524      4.17651      2.21020        -0.089647      0.108561      0.074034
Li	      2.03742      2.13287      4.11528        -0.050449     -0.074162     -0.081900
Li	      4.05099      4.18358      4.25514         0.041367     -0.017437     -0.072903
Li	      8.17597      6.28385      6.40712         0.069890     -0.074967      0.107068
Li	      2.13246      6.12750      4.26756        -0.084234      0.052728     -0.167379
Li	      2.11472      4.26023      6.28274         0.029771     -0.090566      0.040030
Li	      4.09096      4.15322      8.40856        -0.047990     -0.140012      0.122354
Sc	      2.02377      2.02788      0.05966        -0.265597      0.319766     -0.112640
Mn	      0.11863      4.13893      4.21008        -0.112628      0.283118     -0.509059
Cr	      4.13482      2.14770      2.12161         0.279945     -0.127250      0.169987
Co	      6.15129      2.15719      4.21969         0.148438     -0.384896     -0.310689
Co	      4.02139      6.13513      2.13611        -0.167260      0.181746     -0.114529
Co	      6.26306      6.23468      8.51125        -0.983823      0.194647      0.225977
Cu	      8.19449      4.21588      4.25049         0.072271      0.158547     -0.134573
Cu	      4.11213      6.19715      6.37041         0.268008      0.078261      0.077635
Ni	      6.13501      4.20810      6.33257         0.169668     -0.153586      0.135017
O	      4.26306      4.25764      6.33831        -0.413881      0.329785      0.042569
O	      6.11557      6.11737      6.62062        -0.408215      0.235877     -0.239895
O	      2.10851      2.08354      2.09549        -0.017851     -0.043078     -0.155658
O	      4.11559      4.13042      2.10610         0.073439     -0.095437     -0.038992
O	      4.20940      2.05081      4.11753        -0.050367      0.027136      0.083264
O	      6.22953      4.12287      4.27207         0.029468      0.457998     -0.129397
O	      6.08296      2.22857      6.32554         0.007859     -0.299155      0.078624
O	      8.05179      4.20851      6.28359         0.275543      0.069809     -0.263947
O	      1.93106      4.13476      4.27315         0.155186      0.017723      0.129970
O	      4.11840      6.44511      4.11138         0.008239     -0.259661      0.451889
O	      6.17805      4.28727      8.65624         0.000106     -0.163573      0.087682
O	      8.11544      6.27453      8.49301         0.725556      0.012595     -0.146812
O	      2.14445      6.23797      6.36041         0.359109     -0.203614      0.011173
O	      4.15438      8.29250      6.30055         0.041740     -0.231723      0.127493
O	      4.29402      6.32619      8.59158        -0.156944      0.048106     -0.160842
O	      6.17329      8.18789      8.54726        -0.104752     -0.075427      0.168412
O	      6.15669      6.21043     10.47939        -0.046992     -0.280505      0.272810
O	      8.20547      8.42271     10.62482         0.306583      0.172187      0.151206
