# total energy = -208.98768716 eV
 
CRYSTAL
PRIMVEC
0.077102 6.188942 6.432173 
6.154741 0.034057 6.474485 
4.102793 4.154181 0.023291 
PRIMCOORD
36 1
Li	      6.18733      6.21522     12.83211         0.007492     -0.148248     -0.064850
Li	      4.28227      8.18011      8.60231        -0.116081      0.131708     -0.189857
Li	      4.25887      6.22231     10.72838         0.010128     -0.062799      0.158934
Li	      6.20363      8.23499     10.70284         0.052602     -0.002818      0.128958
Li	      8.21296      4.21330      8.47655         0.094906     -0.049050     -0.122967
Li	      4.13532      2.05115      6.39919         0.012090      0.031572     -0.090326
Li	      6.17037      4.28295     10.77836         0.000192      0.020734      0.282045
Li	      4.16416      6.20240      6.66910        -0.019315      0.110019     -0.092247
Li	      6.14108      6.25148      8.63326         0.122512     -0.031664      0.017979
Sc	      2.13185      2.08574      4.34575        -0.039593      0.027790      0.237215
Mn	     10.26224      6.25710      8.62954         0.102547     -0.145341     -0.300210
Cr	      4.13233      4.13617      4.30667        -0.242620     -0.007198      0.332722
Co	      2.15165      8.25174      6.40649        -0.007774      0.158631      0.139824
Co	      8.19979      6.27608     10.80317        -0.173948      0.143979      0.355454
Co	      6.11692      8.27944      6.51174         0.663066     -0.162949     -0.226258
Cu	      2.17719      6.17263      8.59785        -0.251459      0.191548     -0.030800
Cu	      6.16871      4.15961      6.51070         0.100145      0.140792     -0.127241
Cu	      8.25564      8.34945      8.67709        -0.018407     -0.168461      0.062072
O	      4.10169      6.14239      8.66893         0.130326     -0.403936      0.022319
O	      6.29705      8.37138      8.48178         0.070408     -0.161461     -0.857324
O	      6.41471      6.24755     10.70876         0.093318      0.112455     -0.070761
O	      1.95663      2.02593      2.08732        -0.005599     -0.012767      0.016255
O	      4.18576      4.28872      2.25984         0.022217      0.138237     -0.010377
O	      4.11011      2.15500      4.26019         0.026182     -0.038383     -0.105397
O	      6.09222      4.17298      4.51831         0.221137      0.083494     -0.214284
O	      6.18983      2.11898      6.68112         0.442779     -0.457451      0.184100
O	      8.17006      3.98609      6.45831         0.294807     -0.043281      0.122917
O	      2.12269      4.22032      4.34223        -0.235430     -0.001618      0.471029
O	      4.07507      6.19230      4.13509        -0.039458     -0.021759     -0.183155
O	      4.00876      4.15238      6.29098        -0.377329     -0.010152     -0.012614
O	      6.19341      6.20144      6.45240         0.105810      0.634446      0.032298
O	      6.13325      4.04383      8.54107        -0.378523      0.091076     -0.112492
O	      8.34760      6.30068      8.81834        -0.043597      0.353356     -0.041596
O	      2.14825      6.28906      6.17132         0.008347     -0.209416      0.014090
O	      4.24874      8.29411      6.47653        -0.546070     -0.166145      0.212320
O	      8.26196      8.16788     10.98603        -0.085806     -0.064941      0.062227
