# total energy = -136.30027307 eV
 
CRYSTAL
PRIMVEC
2.083508 2.083341 -0.000009 
-6.265407 6.264881 3.973503 
-0.000021 -0.000016 7.946959 
PRIMCOORD
24 1
Li	     -3.14856      5.23064      5.01017        -0.011311      0.011920     -0.028419
Li	     -3.14866      5.23087      8.89825        -0.011885      0.012139      0.030786
Li	     -1.03370      3.11842      5.01006         0.009394     -0.011396     -0.033831
Li	     -1.03435      3.11821      8.89771         0.010767     -0.011215      0.029338
Li	      1.04079      1.04185      0.99394        -0.000534      0.000947      0.000095
Li	      1.04059      1.04135      4.96706         0.000022      0.001384      0.001498
Mn	      1.07304      3.09367      2.98039        -0.007902      0.008158      0.001493
Mn	     -3.13322      3.13299      2.98051         0.000207      0.000038      0.004621
Mn	     -3.17328      7.33851     10.92772         0.009161     -0.007323     -0.000734
Ni	     -1.08829      1.08838      6.95378         0.034569     -0.035524      0.002747
Ni	     -3.13313      3.13299      6.95401        -0.000474     -0.000232      0.000794
Ni	     -3.09490      7.26064      6.95411        -0.034357      0.035619     -0.000117
O	     -3.14192      5.22446      6.95410         0.025942     -0.025343      0.003026
O	     -3.19275      5.27460      2.98107        -0.062441      0.063383     -0.000522
O	     -1.04109      3.12471      6.95395        -0.027222      0.026535     -0.001867
O	     -0.99058      3.07456      2.98031         0.063803     -0.064800     -0.000155
O	      1.00352      1.07968      2.98053        -0.123510      0.122668      0.001809
O	     -5.18725      7.26934     10.92748         0.123983     -0.123891     -0.001006
O	     -3.14775      7.31314      4.87755        -0.000128      0.000241     -0.094717
O	     -3.14736      7.31261      9.03088        -0.002887      0.004340      0.095605
O	     -3.13284      3.13320      4.84821        -0.006677      0.003889     -0.096807
O	     -3.13316      3.13320      9.06026         0.004515     -0.005974      0.091693
O	      1.04729      3.11939      1.08381         0.002494     -0.001696      0.091006
O	      1.04743      3.11930      4.87722         0.004472     -0.003865     -0.096335
