# total energy = -213.24540801 eV
 
CRYSTAL
PRIMVEC
-0.020769 6.162231 6.172792 
6.119795 -0.014260 6.166161 
4.100280 4.124035 -0.029886 
PRIMCOORD
36 1
Li	      6.12029      0.02472      6.19089         0.083089     -0.027934      0.012382
Li	      4.08508      2.09427      2.01441        -0.028485      0.062482      0.019840
Li	      6.10165      8.16660     10.30752        -0.023587      0.014840     -0.026226
Li	      6.10614      6.14141      4.11335        -0.012736     -0.076154     -0.027513
Li	      4.09106      4.20070      4.06136         0.127669      0.062122     -0.057068
Li	      6.11704      4.09343      6.16774        -0.067234      0.012092     -0.074908
Li	      2.06015      6.15072      4.10700        -0.020809      0.012317      0.077538
Li	      4.11230      6.14435      6.15063        -0.007327      0.004586      0.033938
Li	      6.09233      6.18571      8.18138        -0.059231     -0.023127      0.018263
Sc	      4.09907      8.17855      4.09723        -0.030823      0.041455      0.064056
Mn	      6.14030      8.20935      6.15488        -0.230079      0.447720      0.008034
Cr	      4.06065      0.07102      4.09910        -0.181250     -0.105937     -0.364425
Co	      6.11696      4.10780      2.02852         0.354694      0.000029      0.224630
Co	      6.10451      2.04231      8.21075         0.277512     -0.214467      0.110394
Co	      2.10328      4.11861      2.05153         0.152681      0.030180      0.046344
Co	      8.15227      8.20922      8.19258         0.077470      0.110339      0.095062
Cu	      4.10276      2.03931      6.13715        -0.041044      0.085207     -0.000785
Ni	      8.11639      2.02485      6.14514         0.163416     -0.217832      0.007355
O	      6.19502      6.32551      6.15971        -0.049501     -0.099578      0.020448
O	      1.93685      2.07462      1.98248        -0.041165     -0.694163      0.090591
O	      4.14758      4.24263      2.05695         0.079664      0.021444     -0.041360
O	      4.09320      1.90859      4.14981         0.008716      0.093068     -0.076145
O	      6.26492      4.09984      3.92550        -0.108791     -0.080312      0.259871
O	      6.10806      2.04669      6.27564        -0.141926      0.024336     -0.022255
O	      8.13122      4.10812      6.07361         0.027780      0.094857      0.138022
O	      2.05132      4.15841      4.24104         0.139458     -0.075619     -0.049274
O	      4.07331      6.17898      3.97313         0.002276     -0.086828     -0.058501
O	      3.98198      4.07810      6.30373         0.144774     -0.060836     -0.008087
O	      6.04081      4.00324      8.18588        -0.019084      0.094760     -0.026284
O	      8.27882      6.22504      8.13049        -0.059678      0.085475      0.034616
O	      2.03775      6.09805      6.33178        -0.037410     -0.175104     -0.397667
O	      4.18423      8.19013      6.18266         0.083382     -0.017503      0.010577
O	      3.97895      6.01581      8.28207        -0.343030      0.093389      0.021468
O	      6.23817      8.25259      8.10098        -0.186316      0.567128      0.044845
O	      5.93439      6.11962     10.22967         0.064026      0.092118     -0.023087
O	      8.12035      8.30477     10.20640        -0.097100     -0.094552     -0.084687
