# total energy = -210.76132082 eV
 
CRYSTAL
PRIMVEC
-0.022458 6.234710 6.236009 
6.242414 -0.001417 6.214638 
4.160772 4.141607 -0.000054 
PRIMCOORD
36 1
Li	      8.36962     10.24194     10.31815         0.002365     -0.116933      0.018864
Li	      6.28251      8.28056     10.33901         0.106870      0.007144      0.041836
Li	      8.24963      4.28975      8.34534         0.032249     -0.060644     -0.161254
Li	      6.21804      6.21644      4.21270         0.016760     -0.080867     -0.078765
Li	      8.27376      6.27986      6.27351         0.125748     -0.195214      0.031130
Li	      6.13794      4.24784     10.31930        -0.168110     -0.040201      0.052945
Li	      8.26761      6.23341     10.23216         0.014114      0.218966      0.035179
Li	      8.30607      8.22772      8.35261         0.058344      0.005264      0.247505
Li	      6.42148      6.16081      8.44252         0.043102     -0.025885      0.045462
Sc	      4.15461      2.07235      2.16679        -0.482385     -0.135035     -0.116988
Mn	      6.21587      4.17382      6.25522         0.693065     -0.435681     -0.039992
Cr	      6.18965      6.27491     12.29519        -0.111690     -0.006429     -0.088771
Co	      8.28817      8.32762     12.36140        -0.054649     -0.287104      0.776047
Co	      2.04826      0.03055      2.04501         0.091204      0.273983     -0.159290
Co	      6.34422      8.15166      6.21721         0.116970      0.164062     -0.034470
Co	      4.14611      6.18931      6.22719        -0.048222      0.453478     -0.175512
Cu	     10.32817      6.24561      8.36223         0.219247      0.021378     -0.069318
Cu	      4.13336      4.14162      4.16877         0.393711      0.105710     -0.022937
O	      4.14826      6.05445      4.22980        -0.033640      0.010137     -0.013163
O	      8.42134      6.19965      8.28838        -0.148770      0.005622      0.026942
O	      2.01509      1.97213      1.93379         0.056210     -0.020914      0.294471
O	      4.25451      4.20190      1.87920         0.055840      0.032283     -0.104040
O	      4.12931      2.24592      4.15456        -0.018324     -0.164554      0.048265
O	      6.07211      4.15578      4.09444        -0.130833      0.012989      0.109344
O	      6.38808      2.10713      6.17187        -0.180728      0.268625      0.160701
O	      8.31027      3.96988      6.18636        -0.449789      0.566662     -0.058450
O	      2.24506      4.12828      4.35801        -0.450213      0.006901      0.433988
O	      4.26252      4.19262      6.37210        -0.179645     -0.284319      0.132232
O	      6.21183      6.14799      6.29769        -0.048452     -0.006012      0.066783
O	      6.27519      4.07854      8.16641         0.006421      0.085612     -0.116065
O	      2.00597      6.36811      6.34554        -0.031565     -0.486218      0.053626
O	      4.02660      8.35756      6.19734         0.482648      0.078888      0.042703
O	      3.95859      6.27143      8.24998        -0.100101      0.044190      0.251464
O	      6.19683      8.45095      8.15517         0.056269     -0.073167     -0.555380
O	      6.19590      6.24343     10.39713         0.067304     -0.012245     -0.106463
O	      8.30651      8.25951     10.57840        -0.001325      0.069528     -0.968630
