# total energy = -215.13115373 eV
 
CRYSTAL
PRIMVEC
0.006479 6.218574 6.203918 
6.251953 -0.000537 6.211100 
4.182279 4.164739 -0.014560 
PRIMCOORD
36 1
Li	      2.13043      8.28417      6.18284         0.009666      0.023362      0.023814
Li	      6.32201      4.16481      2.11810         0.055776     -0.209358     -0.049669
Li	      4.19393      2.04304      2.15894         0.134006      0.055591     -0.001697
Li	      6.22897      8.38597     10.21250         0.020438     -0.022978     -0.183140
Li	      6.27143      6.21001      4.12751         0.023431      0.094473     -0.004528
Li	      4.28477      4.10148      4.09963        -0.003012     -0.060182     -0.004169
Li	      6.25151      4.13587      6.14966         0.041846     -0.045888     -0.006721
Li	      4.16176      4.18838      8.28317        -0.241170      0.010770      0.000817
Li	      6.21729      6.25903      8.28605         0.026890      0.171529     -0.003753
Sc	      0.07127      6.19929      6.22957         0.082407     -0.105007      0.131538
Mn	      4.14072      2.08887      6.15090        -0.172680      0.056013      0.086098
Cr	      4.07397      6.19505     10.21657         0.070907      0.004104     -0.111910
Co	      2.08031      4.10717      2.13465         0.016147      0.229438      0.068226
Co	     10.42215      8.30676     10.32860         0.112380      0.041764      0.074514
Co	      8.31897      6.27750     10.29769         0.012561      0.071860      0.013354
Co	      6.30208      8.27421      6.37437        -0.046439      0.017088     -2.157643
Co	      4.22059      6.19498      6.22768        -0.056908     -0.005442      0.102202
Cu	      0.04167      2.07456      2.10874        -0.111963     -0.086546     -0.051980
O	      6.23850      8.32875      8.15562         0.088590     -0.072872      0.390633
O	      2.02807      2.27804      2.01895         0.030370     -0.128293      0.017273
O	      4.06421      4.22701      2.09858        -0.157105     -0.180015     -0.030564
O	      4.17326      1.99115      4.23783        -0.003514     -0.029530      0.042341
O	      6.44568      4.13898      4.11084        -0.069701      0.018105      0.024950
O	      6.09563      2.07602      6.24388         0.006286      0.012538      0.051919
O	      8.36632      4.28419      6.08102        -0.033070      0.030451     -0.120898
O	      1.90562      4.23433      4.18097         0.145193     -0.085493      0.483133
O	      4.16802      6.37160      4.14013        -0.083844     -0.061734      0.011271
O	      4.13733      4.04364      6.16921        -0.636389     -0.049854      0.343085
O	      6.35534      6.25330      6.19841         0.030144      0.804496      0.301447
O	      6.37758      4.04380      8.42828         0.049751      0.274119      0.078809
O	      8.36388      6.07830      8.17789         0.080745     -0.066283     -0.159021
O	      2.13295      6.22105      6.18904        -0.008743     -0.668417      0.315424
O	      4.21516      8.27241      6.08570         0.521983      0.023018      0.247484
O	      4.19907      6.23030      8.36033        -0.035910      0.029529      0.027615
O	      6.14760      6.11415     10.33765         0.011158     -0.119460      0.010931
O	      8.44814      8.34851     10.30683         0.089771      0.029104      0.038815
