# total energy = -200.08951110 eV
 
CRYSTAL
PRIMVEC
0.021487 6.292081 6.232963 
6.256179 0.010319 6.244075 
4.151717 4.183050 0.025994 
PRIMCOORD
36 1
Li	      4.15695      4.10525      0.12413         0.003312     -0.021707      0.072667
Li	      2.18564      8.38336      6.33256         0.023027     -0.015020     -0.033782
Li	      2.13478      6.32421      8.20575        -0.000556     -0.023637      0.032804
Li	      4.12993      8.35106      8.19218        -0.018383     -0.026263     -0.028459
Li	      4.17885      6.27918     10.30649        -0.048432      0.013813     -0.027452
Li	      2.04555      2.09322      4.07261         0.032159     -0.028340     -0.024396
Li	      6.26525      4.21015      6.20035         0.002649     -0.000667     -0.047569
Li	      6.18244      8.37641      6.38034        -0.017247      0.025057      0.052021
Li	      4.19530      6.37045      6.31566         0.015045      0.045335     -0.016166
Sc	      2.12111      6.27287      4.34484        -0.175380      0.045840      0.167599
Mn	      6.23291      2.13720      4.17581         0.002722      0.095686     -0.015892
Cr	      8.28770      6.26466      6.24789        -0.066226      0.004329      0.107558
Cu	      4.18742      4.20187      4.15949         0.147775     -0.153130      0.388250
Ni	      0.07692      2.08963      2.03929         0.064852      0.000569     -0.109594
Ni	      2.08621      4.15020      2.08217         0.078627      0.016689     -0.047787
Ni	      4.16440      8.37135      4.24737        -0.077138      0.002445     -0.023421
Ni	      4.18357      4.28270      8.28712        -0.028913     -0.104385     -0.250594
Ni	      6.23877      6.31685      8.31189        -0.048306      0.015389     -0.060676
O	      4.18826      8.39205      6.14615         0.029283      0.039409      0.243751
O	      2.03982      2.18539      2.03765         0.017084     -0.042704      0.067872
O	      4.05687      4.26230      2.22325        -0.063759      0.071103     -0.496564
O	      4.26365      2.10300      4.26059         0.153249      0.078085     -0.066572
O	      6.19787      4.03333      4.15055        -0.041134     -0.152848      0.002035
O	      6.11088      2.10022      6.14504        -0.027013     -0.035207     -0.062717
O	      8.33454      4.37798      6.39926         0.024416     -0.038953     -0.033288
O	      2.08546      4.18044      4.03370         0.024459     -0.048633      0.014272
O	      4.17034      6.27052      4.14465         0.191425     -0.055287      0.058821
O	      4.18750      3.99669      6.17863        -0.022178      0.061409      0.178622
O	      6.41603      6.27001      6.34417        -0.030673      0.001025     -0.024962
O	      6.28293      4.19389      8.44148        -0.029176     -0.032243     -0.118201
O	      8.32873      6.34037      8.28297        -0.018436     -0.065332     -0.081082
O	      2.08916      6.25334      6.26329         0.006308      0.004192      0.013626
O	      4.31297      6.22902      8.27663         0.064922      0.136699     -0.024405
O	      6.30194      8.35474      8.48737        -0.047603      0.103750     -0.000828
O	      6.25375      6.38848     10.30498         0.004356      0.072045      0.038174
O	      8.23161      8.39535     10.39604        -0.125116      0.011487      0.156338
