# total energy = -199.73824763 eV
 
CRYSTAL
PRIMVEC
0.007067 6.177954 6.219148 
6.173979 -0.013042 6.239429 
4.127572 4.143725 -0.020577 
PRIMCOORD
36 1
Li	      8.25241      8.21165     12.38851        -0.037556     -0.034131     -0.025971
Li	      8.21296     10.28694     10.31903        -0.023698      0.047265      0.018577
Li	      6.25106      8.29759     10.34452        -0.017447      0.005065      0.050919
Li	      2.05160      2.08112      4.11418         0.015288     -0.008601     -0.003397
Li	      8.20014      6.25021      6.25130         0.012405     -0.034310     -0.042810
Li	      4.04021      8.15077      4.10782        -0.029712     -0.041532      0.073651
Li	      2.15035      6.17563      4.14938        -0.011674     -0.032929      0.057185
Li	      4.08879      6.19190      6.16753        -0.007720      0.023936     -0.021581
Li	      8.26260      8.23387      8.38238        -0.010338      0.045349      0.068078
Sc	      6.14266      6.21512     12.30699         0.033298      0.128374     -0.149371
Mn	      6.19035      6.18891      8.35623        -0.072897     -0.169928     -0.051827
Cr	      6.15651      4.11563      6.17174         0.160559      0.023519      0.165200
Cu	      4.11444      2.06146      2.07924        -0.101049      0.229201      0.012964
Cu	      2.09899      4.08940      6.20291         0.162727     -0.119362     -0.264834
Ni	      2.13028      6.18046      8.33411         0.087537      0.028552      0.027395
Ni	     10.24999      6.22839      8.33833         0.173079     -0.048099     -0.143326
Ni	      2.05112      4.11435      2.07052        -0.083205      0.044216      0.254432
Ni	      4.12408      4.14380      4.14072         0.122708      0.117142      0.149421
O	      6.14832      8.16031      8.20671         0.220534     -0.020405      0.316200
O	      8.24873      8.23815     10.39511        -0.020051     -0.031489     -0.034875
O	      2.13092      2.05722      2.03416        -0.213330      0.092861      0.068685
O	      4.13473      4.12622      2.02921        -0.089976      0.092584      0.080336
O	      4.13617      2.25048      4.02930         0.029197     -0.325876     -0.285408
O	      6.07136      4.14858      4.18940         0.175294      0.023002     -0.137165
O	      6.15121      2.12249      6.32706        -0.020880     -0.059300      0.062948
O	      8.16077      4.12225      6.21406        -0.017145     -0.002275     -0.084048
O	      2.21469      4.09726      4.22837        -0.250147      0.060497     -0.480055
O	      4.14740      6.06339      4.04915        -0.010299      0.114428      0.034084
O	      4.15315      4.10561      6.17072        -0.021417      0.024710      0.055284
O	      6.18342      6.14397      6.41632        -0.022469     -0.043715      0.044566
O	      6.17505      4.20708      8.23109         0.030666     -0.009843      0.047282
O	      8.13811      6.14697      8.34286        -0.128868      0.005379      0.014749
O	      2.05405      6.05995      6.30943        -0.006667      0.249281     -0.038004
O	      4.23281      8.26292      6.27797        -0.150482     -0.088836      0.173013
O	      4.20612      6.27879      8.35601         0.129343     -0.321108      0.017150
O	      6.17745      6.17437     10.27963        -0.005609      0.036379     -0.029449
