# total energy = -136.27550018 eV
 
CRYSTAL
PRIMVEC
2.085663 2.085374 -0.000081 
-2.091339 2.090911 3.932407 
8.388015 -8.387177 7.888213 
PRIMCOORD
24 1
Li	      1.01398      1.06916      0.98970        -0.014184      0.015645      0.019312
Li	      1.06990      1.01644      4.92726         0.008709     -0.009127     -0.011680
Li	      3.15830     -1.06989      4.91006         0.021161     -0.025346     -0.010111
Li	      5.24007     -3.15355      4.92313        -0.007045      0.006784     -0.001301
Li	      5.24278     -3.16016      8.87387         0.054034     -0.053722     -0.002744
Li	      7.31916     -5.23783      8.85240        -0.063649      0.067484     -0.002668
Mn	      1.01563      3.15291      2.95687         0.006421     -0.004723     -0.044092
Mn	      1.08092     -1.07993      2.95466         0.023038     -0.023979      0.025603
Mn	      3.15048     -3.14995      6.88396         0.023022     -0.023445      0.029269
Ni	      1.05960     -1.05716      6.88274         0.041065     -0.044997     -0.007869
Ni	      7.36615     -3.19833      6.87515        -0.036746      0.039887      0.055915
Ni	      9.38504     -5.21736      6.91132        -0.004356      0.006923     -0.043490
O	      1.00254      1.08042      2.96108        -0.048710      0.049497      0.013700
O	      3.15077     -1.06158      2.93710        -0.115572      0.112581     -0.007079
O	      3.21367     -1.12731      6.88066         0.113260     -0.113765     -0.009988
O	      5.13967     -3.05400      6.88727        -0.073014      0.073151     -0.017527
O	      7.33514     -5.25307      6.89917         0.002785     -0.001084      0.005399
O	      7.39559     -5.31256     10.86325         0.078382     -0.075865      0.003242
O	      9.42023     -5.25119      8.96716         0.019579     -0.020948      0.147930
O	      3.12848      1.04225      1.00250         0.004662     -0.006520     -0.024997
O	      1.05867     -1.05683      4.83406         0.005385     -0.008231     -0.129815
O	      3.15207     -3.15084      4.98343        -0.015033      0.015420      0.133038
O	      3.13898     -3.13858      8.78653        -0.039244      0.038118     -0.158016
O	      7.32111     -3.15390      8.85256         0.016048     -0.013739      0.037969
