# total energy = -200.32642677 eV
 
CRYSTAL
PRIMVEC
-0.011586 6.379585 6.108319 
6.247346 0.008792 6.088081 
4.164247 4.238725 0.006490 
PRIMCOORD
36 1
Li	      4.12578      4.26331      0.06768         0.141512      0.065812     -0.041570
Li	      6.18317     10.53160      8.12964        -0.029109     -0.028674     -0.086156
Li	      4.21179      2.18880      2.05093        -0.038831      0.025005      0.103192
Li	      6.15614      2.14480      4.11302         0.011355      0.002314      0.011899
Li	      4.14674      6.27258      1.97405         0.014646     -0.072719     -0.025949
Li	      4.26005      2.12353      6.07282         0.036019      0.009455     -0.000901
Li	      6.20840      4.23125      6.07314         0.036604     -0.076451     -0.102855
Li	      6.18438      8.48667      6.16456         0.019142      0.092374     -0.054853
Li	      4.21509      6.38002      6.12018        -0.148406      0.007149     -0.006628
Sc	      2.03868      2.12987      0.09362        -0.368655     -0.363297     -0.104525
Mn	      6.22769      6.40219      8.04125         0.048665      0.236301     -0.067101
Cr	      2.08689      6.35922      4.11068        -0.110479      0.072211      0.173398
Cu	      8.37241      4.27183      8.08043         0.040137     -0.114725     -0.209921
Cu	      6.24909      6.33071      4.11928         0.006206     -0.070604      0.164500
Cu	      4.20647      4.21544      4.12836         0.023378      0.041517      0.134397
Cu	      4.17678      8.46766      4.08108         0.027268      0.041138      0.245350
Cu	      4.12470      4.27960      8.00314         0.032233      0.075528      0.033303
Ni	      4.16075      0.10537      4.08017         0.051530     -0.204895      0.223251
O	      4.16140      4.26809      6.07344        -0.050426      0.002018     -0.218494
O	      6.21812      6.37247      6.15611         0.064430      0.015423      0.156578
O	      6.27346      4.41723      8.16329        -0.216445     -0.116029      0.315231
O	      4.32514      6.39316      8.20039         0.037596     -0.319910     -0.335694
O	      6.31440      8.30970      8.15258         0.041126     -0.048551     -0.003180
O	      2.06310      2.20224      2.14946         0.039186      0.282210     -0.084613
O	      4.08852      4.25315      2.18862         0.025602     -0.058668     -0.093193
O	      4.04159      2.14197      4.10232         0.049040      0.128730     -0.071121
O	      6.24408      4.36755      4.05222        -0.063274     -0.048376     -0.094534
O	      6.27677      2.10525      6.04945         0.094496      0.093605      0.104171
O	      8.34768      4.21247      6.10842        -0.033037      0.133079     -0.004326
O	      2.07172      4.30096      4.01133         0.009447      0.114969      0.167715
O	      4.11059      6.40132      4.05057         0.074632     -0.068115      0.052469
O	      8.21859      6.32610      8.16992        -0.068472      0.055339     -0.154673
O	      2.04326      6.39349      6.02323         0.084512      0.092525      0.239350
O	      4.13719      8.49328      5.99996         0.136813     -0.029313     -0.381668
O	      6.30135      6.30950     10.03958         0.013197      0.049992     -0.117653
O	      8.40302      8.41681     10.07401        -0.031638     -0.016368      0.134803
