# total energy = -200.50280000 eV
 
CRYSTAL
PRIMVEC
-0.003504 6.198955 6.550586 
6.082984 0.024315 6.523615 
4.068968 4.127553 0.002769 
PRIMCOORD
36 1
Li	      2.10832      8.14402      6.63558         0.000874      0.021027      0.012416
Li	      2.03211      6.25560      8.63572         0.003293      0.030031     -0.032690
Li	      0.05007      2.14818      2.32204         0.058899     -0.119467      0.045491
Li	      2.00310      4.08937      2.35866         0.053433     -0.034971      0.027088
Li	      1.96390      2.15283      4.24713        -0.018215     -0.027796     -0.089127
Li	      6.05702      4.15146      6.55580         0.028055      0.006300      0.002966
Li	      2.11891      6.16792      4.44354        -0.028431      0.019865      0.012628
Li	      2.05356      4.14532      6.41518        -0.039381     -0.007343     -0.015486
Li	      3.95091      6.26685      6.41271         0.016851     -0.018631     -0.070680
Sc	      0.12264      6.17737      6.61517        -0.173842     -0.011805     -0.041674
Mn	      3.99321      2.05997      2.14860        -0.066307      0.069587      0.026368
Cr	      8.02574      4.14738      4.37733        -0.209624      0.027704      0.103192
Cu	      3.96431      4.23693      4.37030         0.075166      0.037923      0.016596
Cu	      4.03584      2.12314      6.52527         0.008143     -0.024137      0.060991
Cu	      4.09764      8.17964      4.34740         0.038379     -0.240118      0.016353
Cu	      4.05418      4.13291      8.64358         0.003662     -0.004719     -0.140897
Cu	      6.15754      6.17198      8.68235        -0.084118     -0.000717     -0.171558
Cu	      6.10253      8.26073     10.89594         0.021080      0.157831      0.170962
O	      6.26322      6.21820      6.71426        -0.166603     -0.016240     -0.331386
O	      6.00591      4.22526      8.69067        -0.157467      0.191191      0.256191
O	      8.09287      6.31587      8.79353         0.181049      0.091125      0.085375
O	      6.10380      8.16993      8.87343         0.106058     -0.258188      0.161361
O	      8.12006      8.39841     11.03763         0.130783      0.069937     -0.035470
O	      2.16292      2.05974      2.15387        -0.123819      0.007647      0.014452
O	      4.05509      3.98495      2.18711         0.007586      0.043603      0.048547
O	      4.08022      2.03507      4.10276        -0.023083     -0.198462     -0.107735
O	      6.16651      4.07056      4.27948         0.334371      0.047508     -0.099004
O	      5.91583      2.10213      6.36357         0.115862      0.032652     -0.039424
O	      8.09558      4.33461      6.25138        -0.059668     -0.061964      0.196752
O	      1.97442      4.13209      4.36023        -0.070822     -0.001265     -0.014584
O	      4.09945      6.21819      4.36713        -0.021489      0.175155     -0.022280
O	      4.04294      4.01176      6.35423        -0.013000      0.147504      0.078035
O	      2.02091      6.20053      6.55760         0.173534     -0.032615      0.014246
O	      4.08495      8.24289      6.81054         0.030834     -0.021685     -0.109136
O	      4.11293      6.23008      8.91608         0.017260     -0.039240     -0.107904
O	      5.95807      6.16006     10.91248        -0.149302     -0.057229      0.079027
