# total energy = -207.93801933 eV
 
CRYSTAL
PRIMVEC
0.013837 6.219727 6.239470 
6.275171 -0.015795 6.269182 
4.164442 4.147238 0.008568 
PRIMCOORD
36 1
Li	      4.25823      8.16855      8.40003         0.003761     -0.042630      0.012772
Li	      4.25248      6.23040     10.34081         0.042479     -0.027529      0.028566
Li	      6.19313      2.04493      4.15713        -0.045153     -0.009181      0.007051
Li	     10.36947      6.24848      8.38166        -0.002863      0.038327     -0.001376
Li	      4.15838      2.15207      6.25501        -0.047788      0.039592      0.027645
Li	      6.21244      4.12412      6.28404        -0.020177     -0.008352      0.030486
Li	      4.24645      6.19071      6.37418         0.022636     -0.000093      0.061109
Li	      4.21663      4.14488      8.31406         0.017413      0.014365     -0.020888
Li	      6.22752      6.22493      8.34484        -0.004176     -0.008704     -0.001042
Sc	      8.36725      4.25002      8.31012        -0.090376      0.017899     -0.125597
Mn	      6.28560      8.24014      6.29681         0.007972     -0.084143      0.038293
Cr	      8.23512      2.04130      6.31520        -0.140713      0.081706     -0.037077
Fe	      6.20769      4.16878     10.37829         0.132492     -0.062529     -0.010237
Co	      4.19047      4.13318      4.16645         0.024321     -0.055830      0.066189
Cu	      2.16895      6.17536      8.34889        -0.045151     -0.034198      0.038303
Ni	      6.26686      6.20295     12.46962        -0.101038      0.034106      0.073000
Ni	      6.29387      6.15042      4.22711        -0.041020      0.022313     -0.091797
Ni	      8.36874      6.23479     10.38062         0.004762      0.000548      0.012165
O	      4.09245      6.18107      8.39755         0.170319     -0.038665     -0.040172
O	      2.16922      2.01634      1.92267         0.005702      0.076338     -0.107126
O	      4.21810      4.15973      2.22069         0.030019     -0.016662      0.094398
O	      4.13776      2.27695      4.17427         0.162545      0.135840     -0.006270
O	      6.08862      4.15886      4.12606        -0.082924     -0.185588      0.113096
O	      6.43479      2.02067      6.26819         0.122667      0.133856      0.025889
O	      8.36447      4.00290      6.27940        -0.143158     -0.062708     -0.006774
O	      2.14407      4.13375      4.24417         0.054612      0.003127      0.059184
O	      4.19621      6.11028      4.16719         0.010766     -0.080108     -0.015817
O	      4.04163      4.17157      6.07409         0.010143     -0.000789     -0.076597
O	      6.26039      6.39020      6.24642         0.021644      0.057988      0.140685
O	      6.32300      4.10276      8.47808         0.060708      0.017686     -0.180842
O	      8.38531      6.20987      8.35920        -0.036823      0.002626     -0.153298
O	      2.04941      6.18855      6.26560         0.134728      0.009851     -0.062215
O	      4.26441      8.31265      6.14285         0.034614     -0.135618      0.100099
O	      6.29065      8.34436      8.13798        -0.035959     -0.117015     -0.022931
O	      6.32504      6.13934     10.45389        -0.084614      0.142349     -0.096138
O	      8.44998      8.22669     10.64090        -0.152369      0.141823      0.127261
