# total energy = -208.87742360 eV
 
CRYSTAL
PRIMVEC
-0.019643 6.205105 6.244644 
6.269095 -0.003917 6.229107 
4.172440 4.119400 0.004297 
PRIMCOORD
36 1
Li	      2.15204      6.16718      8.32662         0.056884     -0.025809     -0.037877
Li	      4.10180      2.07016      2.07540        -0.009665     -0.042158      0.008931
Li	      6.17051      6.27051      4.24575        -0.033129      0.012730      0.029558
Li	      8.22455      6.21633      6.26209        -0.041840     -0.001796     -0.013197
Li	      6.22629      4.26880      6.24266         0.009130      0.057455     -0.007658
Li	      4.25969      8.16979      4.18015         0.078079     -0.052877      0.014343
Li	      2.13778      6.12562      4.16363        -0.030966      0.013422      0.058430
Li	      4.22747      6.18967      6.13333        -0.033753      0.038367      0.026378
Li	      6.28500      6.16073      8.25829        -0.037858      0.039114      0.059503
Sc	      4.17176      6.22385      2.15468        -0.056220     -0.027305     -0.002214
Mn	      6.23908      8.20251      6.24014        -0.118661     -0.021187      0.096300
Cr	     -0.00445      6.19008      6.22122        -0.073848     -0.104919     -0.153169
Fe	      4.16258      0.04669      4.10035         0.001366      0.134839      0.030430
Co	      6.24994      8.26706     10.35302        -0.121320     -0.142521      0.080958
Cu	      8.28278      4.16780      8.31792        -0.073906      0.042125     -0.053589
Cu	      8.34335      8.23895      8.31536        -0.049401      0.066518     -0.004199
Ni	      2.14619      8.18328      6.24699        -0.027581      0.091978     -0.305451
Ni	      4.17888      4.11465      4.19567         0.005088     -0.124520      0.056357
O	      6.22533      6.35388      6.26046        -0.006467     -0.020130     -0.000937
O	      4.15297      6.16291      8.52303        -0.023704      0.032757     -0.328608
O	      2.07044      2.19530      2.00006         0.036406     -0.070949      0.122323
O	      4.00724      4.12984      2.01074         0.117250     -0.048208     -0.023442
O	      4.34544      2.01784      4.13019         0.039903      0.116482      0.048084
O	      6.25329      3.92218      4.17336        -0.041263      0.118179      0.020248
O	      6.34152      1.98153      6.06960         0.005849     -0.003924     -0.061936
O	      8.42715      4.06401      6.00846         0.054430      0.001456      0.204356
O	      2.15484      4.11563      4.35924        -0.076228      0.045999     -0.002420
O	      4.19353      6.11842      4.12757        -0.002598      0.178895      0.055674
O	      3.99875      4.14661      6.35442         0.089131      0.028221     -0.358389
O	      6.26120      4.15172      8.30240         0.162845      0.100115     -0.033426
O	      8.35157      6.14439      8.31413        -0.024545     -0.122276     -0.080757
O	      1.97497      6.11950      6.29858        -0.044277     -0.097628      0.047579
O	      4.25541      8.31510      6.22305         0.060367      0.057729     -0.015425
O	      6.32365      8.24816      8.43809        -0.076477     -0.026215      0.079173
O	      6.20027      6.36414     10.43263         0.192603     -0.063064      0.117911
O	      8.20206      8.33779     10.33844         0.094377     -0.180894      0.326158
