# total energy = -207.80502000 eV
 
CRYSTAL
PRIMVEC
-0.003597 6.239949 6.332747 
6.172767 0.026019 6.303789 
4.156666 4.181837 -0.024286 
PRIMCOORD
36 1
Li	      4.08194      2.13266      2.25470        -0.077539     -0.048264      0.092928
Li	      4.06416      0.15161      4.18623         0.019037      0.051525     -0.046072
Li	      0.03551      2.05969      2.10952         0.063363      0.071393      0.029537
Li	      2.11643      4.12475      2.02665        -0.044887     -0.048107      0.073174
Li	      6.26685      6.19639      4.18869         0.100646      0.031191     -0.089039
Li	      4.23518      4.02774      4.12544        -0.145989     -0.060902      0.009298
Li	      4.09498      2.07953      6.25333         0.074690     -0.022123     -0.119656
Li	      4.17586      6.21509      6.34387        -0.007194     -0.030353      0.042073
Li	      6.17750      6.24526      8.37425        -0.016324     -0.022499     -0.003636
Sc	      2.12915      6.22611      4.17508        -0.015198     -0.072651      0.041260
Mn	      4.14911      8.33222      4.22182         0.109574      0.069135     -0.031327
Cr	      4.16467      4.22499      8.40472        -0.045225      0.010279     -0.022530
Fe	      6.25036      8.08811      6.33660        -0.065669      0.211117     -0.090746
Co	      2.06470      2.12393      0.09857         0.091281     -0.065357     -0.555213
Cu	     10.26221      4.25449      6.34246        -0.104698      0.039809     -0.200515
Cu	      6.16885      4.22850      2.07594         0.243681      0.101159     -0.041856
Cu	      6.20356      4.25123      6.21017         0.100997     -0.061348     -0.126908
Ni	      6.08480      2.15745      4.15249         0.070616     -0.187415     -0.029512
O	      8.21655      4.05050      6.35745         0.118137     -0.042920      0.019616
O	      6.20471      6.22255      6.33878        -0.066169     -0.319069      0.025174
O	      4.02587      6.07650      8.43399        -0.117946      0.120560     -0.015909
O	      2.11238      2.01795      1.95510        -0.190119      0.165568     -0.362239
O	      4.18629      4.22566      1.95813         0.034343      0.003863     -0.084229
O	      4.16610      2.09817      4.21432        -0.289460      0.007261     -0.072123
O	      6.17856      4.14902      4.02779         0.029012      0.211865      0.256080
O	      6.30287      2.27418      6.17027         0.485856     -0.094683      0.565121
O	      1.94701      4.16727      4.33164        -0.057201      0.040755      0.024766
O	      4.14528      6.44275      4.19680         0.056505     -0.055893      0.047963
O	      4.09420      4.17902      6.43734         0.093897      0.056988      0.013416
O	      6.07083      4.24340      8.61771         0.178043      0.009292      0.011532
O	      8.23643      6.47679      8.46203        -0.041788     -0.150457      0.075431
O	      2.01990      6.38571      6.35239        -0.182815      0.152216      0.072142
O	      4.15780      8.30853      6.17332        -0.280999      0.107202      0.211380
O	      6.28956      8.37430      8.33261        -0.064051     -0.089715     -0.084007
O	      6.17834      6.19616     10.65516        -0.085602     -0.131008      0.155988
O	      8.35015      8.37131     10.50720         0.029193      0.041589      0.208637
