# total energy = -208.51206359 eV
 
CRYSTAL
PRIMVEC
-0.039563 6.189620 6.240933 
6.209264 -0.038086 6.239342 
4.102531 4.088293 0.011703 
PRIMCOORD
36 1
Li	      4.08899      2.03353      2.08530        -0.074696     -0.107498      0.105975
Li	      6.15206      2.03757      4.19291        -0.032008      0.039054     -0.153308
Li	      0.01937      2.06379      2.09585         0.071347      0.087287      0.099933
Li	      2.02808      4.08409      2.12227        -0.081092     -0.082014      0.088519
Li	      2.03697      2.06584      4.14845         0.031220      0.020284     -0.051652
Li	      6.17133      4.08944      6.21006        -0.091835      0.208078     -0.061622
Li	      2.05100      6.12312      4.17434         0.022996      0.023400     -0.114915
Li	      2.01366      4.12059      6.19849         0.099213     -0.112876     -0.035676
Li	      4.12644      6.16726      6.19395         0.170010     -0.147639     -0.019645
Sc	      4.07852      4.13068      4.15106        -0.099747     -0.146170      0.350120
Mn	      2.03680      2.04202      0.02286         0.123121      0.033343      0.305004
Cr	      6.16223      6.17103      8.24660         0.128754      0.068877     -0.377867
Fe	      4.12352      4.09237      8.25131        -0.041848     -0.029208      0.247291
Co	      4.10027      4.08070      0.02718         0.112937      0.154453      0.359037
Ni	      2.05910      0.00319      2.08130         0.265515     -0.085588      0.192304
Ni	      4.09698      0.02071      4.16259        -0.143776     -0.021015     -0.233614
Ni	      4.15969      2.02529      6.23559        -0.288707      0.151788      0.002194
Ni	      4.14381      8.16190      4.19861        -0.012032     -0.199188     -0.313792
O	      2.06346      2.02186      1.89380        -0.100858      0.213273     -0.365040
O	      4.14120      4.07125      1.95886        -0.239849     -0.041537     -0.507247
O	      4.11756      1.99864      4.22647         0.022769      0.456079     -0.101711
O	      6.18942      4.08173      4.11781        -0.256110     -0.052529      0.206644
O	      6.29075      1.89488      6.22990         0.005575     -0.546524     -0.111340
O	      8.35934      3.98886      6.24024         0.223941     -0.153551      0.189800
O	      1.99330      4.09605      4.18022         0.335349      0.034689      0.015294
O	      4.09608      6.19504      4.16944        -0.035687     -0.189261      0.058323
O	      4.13211      4.07550      6.27392         0.021699      0.133134     -0.270220
O	      6.18935      6.13344      6.44364        -0.107818      0.020774      0.171680
O	      6.11194      4.24488      8.38386         0.241628      0.088333     -0.094360
O	      8.13922      6.20538      8.29664         0.022683     -0.261682      0.046005
O	      1.89225      6.29395      6.26401        -0.247531     -0.044458     -0.216962
O	      3.95446      8.33534      6.23128         0.015718      0.463567      0.256506
O	      4.14116      6.09711      8.32855         0.139453      0.239824     -0.158772
O	      6.23109      8.08034      8.39455        -0.256644     -0.062339     -0.005109
O	      6.11758      6.06174     10.47772         0.244146      0.150221      0.320400
O	      8.32567      8.25245     10.47592        -0.187833     -0.303383      0.177820
