# total energy = -212.16304063 eV
 
CRYSTAL
PRIMVEC
0.018347 6.175110 6.268530 
6.200402 0.009830 6.277326 
4.166805 4.155434 -0.027123 
PRIMCOORD
36 1
Li	     10.24049      4.31111      6.29551        -0.010149      0.006940     -0.021070
Li	      8.20405      2.13089      6.28722        -0.004575      0.013198     -0.004081
Li	      4.07225      2.18943      2.12552         0.026993     -0.006631      0.043567
Li	      6.20810      2.03709      4.31034        -0.001766      0.015073      0.068867
Li	      2.21902      4.11334      1.99446         0.008413     -0.025163     -0.028341
Li	      4.16336      4.11084      4.03596        -0.020834     -0.010041     -0.038203
Li	      4.31002      1.94016      6.31580         0.001158     -0.016340     -0.016817
Li	      6.25074      4.04970      6.30196         0.022930     -0.020634      0.003410
Li	      8.26542      6.27495     10.35172        -0.012942     -0.003594     -0.028899
Sc	      2.10747      4.10241      6.23925         0.049355      0.009119      0.033606
Mn	      8.27935      4.19699      4.26927         0.024545     -0.035528     -0.019369
Cr	      2.06391      0.03707      2.11014         0.085478     -0.083835      0.058144
Fe	      6.20000      4.10652     10.41271        -0.063014      0.088828     -0.000724
Co	      2.06621      2.04071      4.15280         0.114652     -0.038867     -0.073394
Co	      8.30991      8.29915      8.36381        -0.024959      0.087131      0.043411
Cu	      4.16053      6.17706      6.23919         0.008812     -0.004458     -0.024015
Ni	      6.20047      2.04597      8.29192        -0.020162      0.074736     -0.033107
Ni	      6.26011      6.19567      8.37826        -0.027888      0.047759     -0.026590
O	      6.23491      2.07346      6.41336        -0.015419     -0.000835     -0.156113
O	      2.08291      2.00699      2.22392         0.080391      0.047715      0.093014
O	      4.28844      4.18576      2.02573        -0.046959     -0.115056     -0.012441
O	      4.01402      1.95172      4.23324        -0.104895      0.017851      0.009185
O	      6.32037      4.25025      4.09533        -0.026917      0.071653      0.036997
O	      8.28239      4.12526      6.10217        -0.005049     -0.001814      0.010340
O	      2.04156      4.02584      4.15534         0.039608     -0.058933      0.018558
O	      4.27376      6.23370      3.93708         0.036691     -0.088131      0.037854
O	      4.17427      4.28835      6.43348         0.000381     -0.056691      0.021314
O	      6.06222      6.17149      6.14306         0.024512     -0.009289     -0.084411
O	      6.07230      4.14610      8.40906        -0.032850     -0.059003     -0.057099
O	      8.26883      6.38523      8.32020         0.068424      0.015766     -0.029899
O	      2.26008      6.18826      6.34600        -0.052985      0.023512     -0.032388
O	      4.17537      8.07948      6.14540        -0.017117      0.047740      0.065876
O	      4.14670      6.10770      8.55568        -0.086172     -0.019670      0.102783
O	      6.33578      8.30291      8.33830         0.031452      0.087423     -0.041934
O	      6.09572      6.14042     10.45238        -0.004063      0.020910      0.107366
O	      8.32448      8.36595     10.32136        -0.045080     -0.020841     -0.025397
