# total energy = -210.29396930 eV
 
CRYSTAL
PRIMVEC
0.022164 6.191172 6.308981 
6.231248 0.008403 6.323262 
4.163326 4.145896 -0.003564 
PRIMCOORD
36 1
Li	      8.36511      8.28647     12.56627         0.009353     -0.080100      0.013864
Li	      4.16816      2.03473      2.25867         0.018681     -0.079382      0.083197
Li	      4.23684      6.23961     10.46114        -0.146066      0.026013     -0.128369
Li	      6.16493      2.05162      4.22568        -0.016899      0.090026     -0.095098
Li	      2.14269      2.05931      4.21146        -0.013854     -0.099420     -0.110261
Li	      4.13249      2.06599      6.25993         0.020030     -0.038090      0.044262
Li	      8.28751      6.25809     10.51267         0.076305      0.060750     -0.023451
Li	      6.23677      8.23709      6.39161        -0.006168      0.120109      0.139990
Li	      8.25180      8.31468      8.47145        -0.064453      0.069486      0.011984
Sc	     10.39303      6.19123      8.39959         0.115107     -0.085404     -0.022828
Mn	      2.08005      4.10888      2.10886         0.180617     -0.195834     -0.039137
Cr	      6.27902      4.16832      6.21945         0.038144     -0.229720     -0.212874
Fe	      4.11419      3.93955      4.29932         0.232828      0.101938     -0.088229
Co	      2.26424      6.06447      8.42674        -0.602515     -0.213705      0.856854
Co	     10.35545      8.30617     10.52081        -0.211467     -0.215407     -0.136330
Cu	      6.26164      6.21885     12.52750         0.233099     -0.081508      0.064403
Cu	      6.23401      6.29335      8.41171        -0.216603     -0.085510      0.013366
Ni	      4.16750      6.26065      6.29520        -0.233127      0.056050      0.195670
O	      6.28244      8.28041      8.44938        -0.057755      0.236042     -0.039590
O	      6.26178      6.03862     10.40678         0.070395      0.280559     -0.060666
O	      2.05897      2.16977      2.12205        -0.005468      0.223694      0.020589
O	      4.01873      4.12692      2.25083        -0.152980     -0.039934     -0.098011
O	      4.13914      2.10516      4.26290        -0.059763     -0.200262      0.104640
O	      6.18067      4.15203      4.14525        -0.203980      0.051779      0.487144
O	      6.25364      2.09202      6.34209        -0.041445      0.058582     -0.060775
O	      8.30600      4.14340      6.49849        -0.017440      0.001249     -0.025928
O	      2.01205      4.14062      4.05579         0.002385      0.012223      0.041699
O	      4.15312      6.36491      4.23510         0.010453      0.134902     -0.025605
O	      4.27193      4.20123      6.22401        -0.010011     -0.063567     -0.021487
O	      6.21000      6.14156      6.39870         0.159612      0.219181      0.270933
O	      6.35167      4.15767      8.37185        -0.076968     -0.313624     -0.027774
O	      8.28643      6.06533      8.42247         0.093714      0.067219      0.024068
O	      2.02963      6.19693      6.59647         0.136907      0.069414     -0.781661
O	      4.19849      8.36130      6.05356         0.015272      0.031960     -0.079105
O	      4.18794      6.23793      8.37238         0.518804      0.094256     -0.271248
O	      8.56623      8.27864     10.49732         0.205254      0.016036     -0.024238
