# total energy = -211.21714463 eV
 
CRYSTAL
PRIMVEC
-0.008529 6.301429 6.188824 
6.112422 -0.011904 6.192189 
4.083812 4.211985 -0.016812 
PRIMCOORD
36 1
Li	      6.12277      0.04588      6.17460         0.057778      0.083759      0.055237
Li	      8.11996      2.06683      6.18213         0.001445     -0.158395      0.083669
Li	      8.08553      4.26361      8.22001        -0.063126      0.102592      0.000795
Li	      6.08137      6.37171      4.20156        -0.108837      0.071710     -0.129899
Li	      6.10017      4.25552      6.24284         0.059447     -0.086603      0.129572
Li	      2.03362      6.25192      4.13000         0.079395     -0.013031     -0.013047
Li	      2.08777      4.16097      6.13955        -0.110224      0.053609      0.007651
Li	      4.06719      4.15988      8.19949         0.067301     -0.102439      0.106041
Li	      6.16444      6.28935      8.16910         0.113571     -0.094739      0.098321
Sc	      4.01730      8.43002      8.13751        -0.364779      0.186730      0.038505
Mn	      0.05565      4.20535      4.11881        -0.215858     -0.430244     -0.560888
Cr	      8.16075      4.18690      4.19168        -0.052315     -0.271380     -0.070751
Fe	      6.18999      8.35284     10.35048         0.076598     -0.141414      0.270738
Co	      2.04791      6.29631      8.22853        -0.233493      0.176026      0.708403
Co	      6.12323      2.13168      8.23250        -0.132716      0.099411     -0.362638
Cu	      4.00526      4.24665      4.16480        -0.039801      0.266060     -0.471367
Cu	      8.08300      6.29709      6.20627         0.447856     -0.034716      0.170099
Cu	      4.12706      6.22209      6.17878        -0.104141      0.010276     -0.008161
O	      4.07488      4.23550      6.06645        -0.082672      0.137970      0.052212
O	      6.08884      6.26718      6.21466        -0.084123      0.111206     -0.065818
O	      8.34742      6.31598      8.12512        -0.528472     -0.016008     -0.266948
O	      1.92279      2.09419      2.05209         0.712880     -1.014098     -0.048442
O	      4.16158      4.30357      2.12142         0.206462     -0.079120      0.091621
O	      4.14097      1.99348      4.15146        -0.241334     -0.157103      0.104703
O	      6.13263      4.08921      3.98653        -0.063222      0.243153      0.091273
O	      6.07677      2.10131      6.17582        -0.163536      0.011280      0.153555
O	      8.14131      4.28061      6.10600        -0.008353      0.022769      0.026840
O	      1.92380      4.24654      4.09340         0.539738      0.004356      0.110623
O	      4.05175      6.47340      3.92268        -0.014794      0.214743      0.440877
O	      6.09977      4.05188      8.39468         0.008978      0.165713     -0.081328
O	      2.15394      6.26747      6.38983         0.117345     -0.061336     -0.296505
O	      4.08243      8.33098      6.08668         0.070286     -0.187205      0.028976
O	      3.97356      6.34958      8.38000        -0.206104     -0.162836     -0.036500
O	      6.06156      8.37543      8.39428         0.274103      0.817041     -0.581294
O	      6.07663      6.21494     10.29333        -0.017307      0.116102      0.209910
O	      8.18183      8.47143     10.34998         0.002023      0.116164      0.013965
