# total energy = -90.69341738 eV
 
CRYSTAL
PRIMVEC
2.096212 2.096173 0.000006 
-2.089019 2.089026 3.941484 
6.284680 -6.284523 3.959424 
PRIMCOORD
16 1
Li	      1.02021      1.07738      0.98691        -0.001989      0.000167      0.016778
Li	      1.08045      1.01596      4.93084         0.001525     -0.000243     -0.017139
Li	      3.16458     -1.06828      4.94694         0.007936     -0.006690     -0.019298
Li	      5.22036     -3.12357      4.92950        -0.005479      0.005903      0.022879
Mn	     -1.07177      1.07270      2.96064         0.013557     -0.014924     -0.011526
Mn	      1.07603     -1.07534      2.95685        -0.013214      0.011757      0.010964
Ni	      3.17902     -3.17824      2.94947        -0.057298      0.055793     -0.011791
Ni	      3.11015     -3.10924      6.92725         0.056569     -0.057112      0.011914
O	      1.04999      1.04682      2.95885         0.000415      0.001224     -0.000979
O	      3.09857     -1.00188      2.94024        -0.031579      0.032064      0.009932
O	      5.23714     -3.14034      2.96759        -0.000084      0.002274     -0.001564
O	      5.28666     -3.18938      6.93648         0.031527     -0.032023     -0.008961
O	      5.24135     -5.24014      5.03866        -0.016240      0.014915      0.131002
O	      1.04644     -1.04584      0.98805         0.000264      0.001095     -0.001414
O	      1.04772     -1.04721      4.83816         0.015114     -0.015414     -0.130033
O	      3.14454     -3.14403      4.93836        -0.001023      0.001213     -0.000763
