# total energy = -214.08854805 eV
 
CRYSTAL
PRIMVEC
0.028282 6.184330 6.224588 
6.292532 0.023312 6.229239 
4.207810 4.138611 0.002891 
PRIMCOORD
36 1
Li	      2.22224      8.15744      6.26775        -0.040405      0.012542     -0.012640
Li	      2.15932      6.19969      8.24713        -0.006452      0.006388     -0.036316
Li	      4.23430      6.19071     10.21421        -0.026019     -0.023362      0.037761
Li	      4.19367      6.13309      2.16827        -0.006139     -0.035873     -0.070122
Li	      2.24468      4.09905      2.11543        -0.009478      0.072423     -0.035269
Li	      6.30248      8.31090      6.25905         0.011235      0.021274      0.022445
Li	      4.09251      6.24779      6.26716        -0.031714     -0.029553      0.040999
Li	      4.18238      4.18222      8.30066         0.009094     -0.013611     -0.032239
Li	      6.18423      6.27641      8.29279         0.035669     -0.032228     -0.037625
Sc	      6.37661      4.12576      6.41403         0.036104      0.008457     -0.011164
Mn	      8.42359      6.22411      6.38847         0.033850     -0.092127      0.081211
Cr	      2.16194      2.07930      4.13422         0.088701      0.016931      0.101418
Fe	      6.33826      8.26760     10.26477        -0.061804      0.100990      0.282901
Co	      6.31317      6.18577     12.41101        -0.107529      0.100469      0.043440
Co	      6.29204      4.14766     10.29979        -0.013139     -0.078922     -0.150533
Co	      8.38720      6.20328     10.31703        -0.121648     -0.128912      0.001149
Cu	      4.21719      8.22573      8.22326        -0.010173      0.079182      0.044811
Ni	      4.22139      4.17968      4.16793         0.055109     -0.041950     -0.044523
O	      4.18684      6.35911      8.21512        -0.005240     -0.029027      0.036542
O	      2.29009      2.05254      2.16509        -0.017484     -0.003741     -0.032921
O	      4.25778      3.95818      1.92990         0.026135     -0.008750     -0.076031
O	      4.21219      2.12590      4.40801        -0.030602     -0.075187     -0.019994
O	      6.28630      4.14706      4.24882         0.206954      0.034235     -0.038801
O	      6.20102      2.00538      6.24924        -0.031181     -0.057458     -0.020038
O	      8.48242      4.26562      6.29644         0.022643      0.093887     -0.021330
O	      2.18298      4.16727      4.12512        -0.344634     -0.016464     -0.006669
O	      4.36104      6.21784      4.17038        -0.078803      0.093179     -0.020222
O	      4.27457      4.01890      6.29014         0.005545     -0.015351      0.058614
O	      6.49768      6.19693      6.20708         0.007025     -0.007953     -0.077387
O	      6.30091      4.15292      8.42922        -0.013157      0.070663      0.210041
O	      8.42950      6.20143      8.31113         0.048652      0.039692     -0.064411
O	      1.92351      6.18259      5.98646         0.029949      0.053851      0.062705
O	      4.18332      8.41217      5.94575        -0.010362      0.048068     -0.105502
O	      6.12148      8.26890      8.37222         0.028284     -0.011404     -0.233307
O	      6.23596      6.26102     10.46800         0.172810     -0.100407      0.123650
O	      8.31356      8.14768     10.31928         0.148203     -0.049952     -0.000645
