# total energy = -205.26359001 eV
 
CRYSTAL
PRIMVEC
0.030800 6.165275 6.280726 
6.186031 0.021321 6.290450 
4.135965 4.129005 0.002009 
PRIMCOORD
36 1
Li	      8.32102      8.27056     12.51960         0.023886      0.031072     -0.067560
Li	      8.26834     10.26328     10.49244        -0.027005     -0.002559     -0.004555
Li	      8.21161      4.16721      8.40188        -0.073726     -0.013078      0.080128
Li	      4.13181      4.16645      4.23841         0.013875      0.009589      0.050814
Li	      6.19424      4.14679      6.31967        -0.051202      0.045642      0.015930
Li	      4.14651      8.24904      4.21606        -0.007570     -0.008350     -0.011508
Li	      2.09043      4.11907      6.23507         0.031073     -0.030835     -0.089248
Li	      4.14143      6.16945      6.27143         0.024350     -0.028633     -0.048306
Li	      6.21035      6.10704      8.37284        -0.017752     -0.147782      0.009480
Sc	      4.20479      8.20826      8.32900         0.017643      0.058584      0.145077
Mn	      2.10434      6.11335      4.19996         0.048752     -0.150912     -0.027518
Cr	      6.17033      6.19706      4.22734         0.015654      0.085777      0.039576
Fe	      8.23900      6.19143      6.29776        -0.104015     -0.015674     -0.009330
Cu	      6.22596      6.16871     12.53457        -0.117504     -0.049921      0.018803
Ni	      2.13385      6.18696      8.35683         0.058354      0.074837      0.029317
Ni	      6.20751      2.13215      4.21350        -0.106249      0.206621     -0.008992
Ni	      6.19308      2.09889      8.39914         0.014055      0.029656      0.069792
Ni	      8.28813      8.24264      8.39797        -0.086544     -0.003220     -0.040624
O	      6.03049      4.06725      8.37753         0.142022      0.117802      0.039236
O	      2.05327      2.08129      2.21136         0.124694      0.058739     -0.122206
O	      4.24663      4.18139      1.96614        -0.042815     -0.031943      0.159837
O	      4.07311      2.11382      4.21943         0.000797     -0.011074     -0.074010
O	      6.18640      4.22850      4.14296         0.056361     -0.124116      0.079805
O	      6.05559      2.03011      6.28032         0.240743     -0.086782      0.020086
O	      8.33174      4.31313      6.29398        -0.067967     -0.237302     -0.014237
O	      2.09671      4.16475      4.16724        -0.016185      0.184758      0.040962
O	      4.10796      6.16258      4.19330        -0.086668      0.015476      0.094020
O	      4.15011      3.92595      6.44249        -0.071459      0.186321     -0.043217
O	      6.35017      6.17640      6.19409        -0.221955      0.007590      0.065873
O	      8.27263      6.16653      8.49540        -0.084758     -0.133463      0.041436
O	      2.04060      6.19257      6.14695         0.110983      0.033984     -0.081309
O	      4.11831      8.32112      6.32450         0.041643     -0.008736     -0.159480
O	      4.13009      6.15969      8.33424         0.124096      0.116711     -0.034704
O	      6.31096      8.28303      8.43728        -0.063302     -0.090906     -0.121543
O	      6.36843      6.22165     10.54488         0.023410     -0.084342     -0.171440
O	      8.26000      8.10908     10.37468         0.134286     -0.003529      0.129614
