# total energy = -204.60370985 eV
 
CRYSTAL
PRIMVEC
0.034472 6.227708 6.176195 
6.284111 0.022336 6.188517 
4.217150 4.187855 -0.012882 
PRIMCOORD
36 1
Li	     10.44217      4.26878      6.19214        -0.077470      0.095233      0.001760
Li	      2.07777      2.14198      0.07282        -0.076764      0.042430      0.007712
Li	      6.30949      2.20125      8.13989         0.048848      0.019740     -0.080076
Li	      2.10872      4.05856      1.98397        -0.024494     -0.016026     -0.050041
Li	      2.08337      2.12964      4.14070        -0.004032      0.058585     -0.036804
Li	      4.30227      2.04696      6.19277         0.125979     -0.062220      0.038653
Li	      6.33267      4.11281      6.20322         0.041848     -0.068703      0.020735
Li	      4.26205      8.30852      4.10300         0.009233      0.003212      0.006823
Li	      2.08045      4.13952      6.11754        -0.010273     -0.013969     -0.041202
Sc	      6.36425      6.17641      8.13823         0.220034     -0.071879      0.081295
Mn	      4.21789      4.15771      4.15079        -0.245224      0.162680     -0.209830
Cr	      2.14109      6.23649      4.16501        -0.050722      0.090056     -0.162219
Fe	      8.36054      4.16406      4.29381         0.086310     -0.050874     -0.460850
Cu	      4.12262      2.13894      2.01068        -0.003549      0.117861      0.007638
Cu	      4.25010      6.28721      6.15369        -0.121875      0.056945     -0.060479
Ni	      2.05116      0.05534      2.01398        -0.072383      0.016291     -0.079910
Ni	      6.30502      2.10684      4.16562         0.035235     -0.081803      0.010180
Ni	      4.24845      4.12810      8.18704        -0.036281      0.017110      0.145267
O	      2.20114      6.25223      6.07460         0.253574     -0.026826      0.358151
O	      4.25393      8.26262      6.25194         0.018997     -0.110394     -0.127454
O	      2.16700      2.04847      2.07097        -0.167461      0.044551      0.054093
O	      4.24050      4.10801      2.18481        -0.004300      0.152973      0.162209
O	      4.23025      2.16986      4.06986        -0.076351     -0.073577      0.013329
O	      6.25098      4.12015      4.09101        -0.022509      0.088105      0.095831
O	      6.30341      2.09719      6.00909        -0.007819      0.024504      0.388118
O	      8.39728      4.23860      6.07605        -0.000467      0.008196      0.459599
O	      2.28215      4.31254      4.10532         0.169448     -0.322243      0.011834
O	      4.15532      6.12455      4.16882         0.047239     -0.133293     -0.121811
O	      4.19726      4.22573      6.08724         0.008681      0.148682     -0.028953
O	      6.22484      6.30548      6.14642        -0.048439     -0.007521     -0.076283
O	      6.24562      4.17845      8.27358         0.056124      0.020664     -0.068554
O	      8.41491      6.30398      8.38191        -0.052075     -0.046832     -0.340763
O	      4.19139      6.29432      8.26241         0.073412     -0.235412      0.348036
O	      6.37291      8.37197      8.38788        -0.040023     -0.016093     -0.273271
O	      6.34984      6.30574     10.31277        -0.139467     -0.091266     -0.025756
O	      8.39114      8.31591     10.25557         0.087016      0.261113      0.032992
