# total energy = -205.24296571 eV
 
CRYSTAL
PRIMVEC
0.054505 6.204872 6.340075 
6.271167 0.020428 6.374408 
4.177569 4.156306 0.016738 
PRIMCOORD
36 1
Li	      8.37858      8.30467     12.60241        -0.025630     -0.025237     -0.023859
Li	      6.27327      2.08372      4.32664        -0.011262      0.022251      0.025544
Li	     10.33345      6.31182      8.48075         0.042946     -0.026682      0.014892
Li	      4.18687      4.11600      4.44953         0.033353     -0.050199      0.025985
Li	      4.22452      2.21370      6.45267        -0.053262      0.018097     -0.063843
Li	      6.15150      4.09110      6.31794         0.013508      0.017572     -0.070521
Li	      8.39898      6.29379     10.57150         0.013165      0.017250      0.004382
Li	      2.24246      4.12620      6.33942         0.013610     -0.042941     -0.030562
Li	      8.44840      8.17448      8.41998        -0.005804      0.034306     -0.016977
Sc	      6.34739     10.28730      8.47511        -0.024191      0.056459      0.097792
Mn	     10.45523      8.33661     10.63716        -0.007826     -0.110819      0.092221
Cr	      6.26155      0.11158      6.37580         0.052308      0.078540      0.013825
Fe	      6.29116      6.21711      4.30508         0.009253     -0.006041     -0.138159
Cu	      4.20764      2.08859      2.16731        -0.091130      0.081565     -0.024557
Cu	      8.35848      4.21014      8.49361         0.098391     -0.171101     -0.047660
Cu	      6.33959      6.25939      8.42984         0.024286     -0.002093     -0.200467
Ni	      8.35025      4.16998      4.32891        -0.074754      0.029570      0.035499
Ni	      4.18454      6.16300      6.29306         0.030916      0.067822     -0.000911
O	      4.20540      4.19600      6.40564        -0.014746     -0.129223      0.050239
O	      6.37571      4.25341      8.64147        -0.161025      0.010122      0.002551
O	      8.27587      6.15199      8.48219        -0.035102      0.130096      0.015475
O	      2.17587      2.09125      2.31212        -0.042531     -0.018547     -0.408476
O	      4.16336      4.09790      2.05038         0.053310      0.121035     -0.070343
O	      4.12978      2.06217      4.18413         0.127043      0.090944      0.023321
O	      6.30080      4.23709      4.22402        -0.110359     -0.221502     -0.105810
O	      6.29999      1.92159      6.38043        -0.028521     -0.072844      0.055337
O	      8.54304      4.10530      6.47367         0.049797      0.006200     -0.015857
O	      2.00058      4.08421      4.13695        -0.044367      0.201700      0.040658
O	      4.24436      6.38321      4.23749        -0.146242      0.072199     -0.148843
O	      6.28680      6.23165      6.11004         0.060198      0.027673      0.847811
O	      2.02238      6.19502      6.39524        -0.122698      0.038157      0.026881
O	      4.23165      8.33777      6.22375         0.006242      0.098487     -0.003313
O	      4.29488      6.32347      8.41614         0.067778     -0.156496      0.062461
O	      6.24172      8.23982      8.51131         0.118293     -0.056182     -0.022624
O	      6.28049      6.13109     10.76200         0.161100      0.012107     -0.045164
O	      8.57714      8.35767     10.55656         0.023952     -0.142244      0.003071
