# total energy = -205.14603906 eV
 
CRYSTAL
PRIMVEC
0.045821 6.116678 6.181475 
6.271652 0.012286 6.215268 
4.200092 4.119575 -0.011046 
PRIMCOORD
36 1
Li	     10.36646      4.13559      6.15717        -0.031743      0.012087      0.025710
Li	      8.40091      4.13215      4.27152        -0.029376      0.079762      0.014332
Li	      8.39599      4.11623      8.22026        -0.039555      0.040058     -0.007046
Li	      4.18945      4.08136      4.22791        -0.001504     -0.036135      0.053902
Li	      4.19610      2.04335      6.19279        -0.076144      0.043663     -0.060127
Li	      6.30185      4.10534      6.12548        -0.002382     -0.003842     -0.041363
Li	      2.09964      6.12956      4.15635         0.018139     -0.037744     -0.030762
Li	      2.22127      4.07671      6.08602         0.106289     -0.008369     -0.033338
Li	      4.27408      4.02287      8.17894         0.003488     -0.033994     -0.090149
Sc	      6.35156     10.16056      8.25210         0.147749     -0.158690     -0.065440
Mn	      6.31902      6.17819      4.16759         0.164035     -0.107442      0.302219
Cr	      6.36774      6.11070      8.24206         0.087872     -0.093075     -0.298764
Fe	     10.33556      6.16444      8.18187        -0.101314      0.126573      0.281940
Cu	      4.15337      2.13785      2.05513         0.094340      0.019017     -0.083520
Cu	      6.29055      2.03205      4.22734         0.106396      0.076237      0.007115
Cu	      6.31432      4.12057     10.35337        -0.054883      0.216224     -0.046010
Cu	      4.21821      6.08086      6.15680         0.242035      0.017129     -0.086893
Cu	      8.37294      2.14855      6.14911        -0.263610     -0.170886      0.164098
O	      2.24263      6.20893      6.18943        -0.199964      0.143331     -0.131950
O	      4.13166      8.15217      6.22167         0.116828      0.157899     -0.100378
O	      6.34006      6.12789     10.20602        -0.049720     -0.025780      0.434468
O	      8.56110      8.22032     10.38606         0.029422      0.033117     -0.220155
O	      2.00084      2.02982      2.21920        -0.122893      0.186478     -0.144296
O	      4.25150      4.18377      2.04364        -0.160994     -0.251523     -0.016814
O	      4.00293      2.08884      4.04572         0.023521     -0.031998      0.219632
O	      6.31300      4.20333      4.10208         0.030970      0.040552      0.175614
O	      6.36384      2.05792      6.19641         0.073309     -0.069358     -0.161435
O	      8.38705      4.02067      6.22093         0.024613      0.110676      0.029799
O	      2.00326      3.94947      4.16369         0.017623      0.210164     -0.067155
O	      4.34917      6.21042      4.11685        -0.359499     -0.224777     -0.188100
O	      4.18008      4.18935      6.21094        -0.021081     -0.285544     -0.068153
O	      6.24491      6.15216      6.14568         0.059750      0.087565     -0.036015
O	      6.27843      4.09258      8.34983         0.001003     -0.034459     -0.177072
O	      8.41105      6.14428      8.23659        -0.075323     -0.009898     -0.015150
O	      4.31702      6.20551      8.12783         0.071399      0.060734      0.531602
O	      6.32034      8.11033      8.42022         0.171203     -0.077753     -0.070348
