# total energy = -204.77767745 eV
 
CRYSTAL
PRIMVEC
-0.000627 6.162822 6.205780 
6.224597 0.004713 6.200557 
4.172247 4.127618 -0.019325 
PRIMCOORD
36 1
Li	     10.35293      4.15207      6.17071        -0.007045      0.035721     -0.024224
Li	      4.15226      8.17465      8.27624         0.020056     -0.118700     -0.007586
Li	      4.14527      0.00963      4.13512         0.036531     -0.019125      0.016388
Li	      4.20002      4.13837      4.16297         0.018683      0.037030      0.048016
Li	      8.25332      6.18571      6.17892        -0.038494     -0.005201     -0.012503
Li	      6.18772      4.20703      6.19960        -0.026683     -0.008378      0.029998
Li	      8.31413      6.19071     10.29845        -0.007319     -0.003207     -0.015167
Li	      4.20819      6.12221      6.23075        -0.002718     -0.042545      0.058419
Li	      6.21829      6.15243      8.22376        -0.022190     -0.024523     -0.021564
Sc	      6.25429      8.19940      6.15567        -0.009317      0.035378     -0.042960
Mn	      8.33996      8.25731     12.38971         0.016315     -0.036320     -0.076267
Cr	      6.11855      2.00370      4.12512         0.007855     -0.181849      0.048926
Fe	     10.35745      6.18789      8.27758         0.097675      0.145974     -0.222233
Ni	      6.26851     10.27811      8.26341        -0.111227      0.038243     -0.094651
Ni	      8.32519      4.16360      8.26268         0.036237      0.086131      0.006381
Ni	      6.30273      6.12387      4.15308         0.106267     -0.003304     -0.038189
Ni	      6.21042      4.16899     10.34978        -0.033982      0.100389      0.001404
Ni	      4.13561      4.11125      8.23064         0.031687     -0.135417      0.100318
O	      2.07353      2.09779      1.96959         0.166175      0.041881      0.001172
O	      4.24003      4.32348      2.05870         0.040167     -0.363245     -0.008546
O	      4.28537      2.05875      4.12644         0.018809      0.015412      0.005542
O	      6.26617      4.00642      3.97778        -0.002200     -0.050650      0.191766
O	      6.38223      2.08849      6.17505         0.042051      0.032425     -0.007331
O	      8.32234      3.97765      6.27300         0.005708      0.029294     -0.104820
O	      2.05426      4.09271      4.08629         0.130901      0.109876      0.048963
O	      4.26191      6.21397      3.97490        -0.048445     -0.065859      0.173049
O	      4.10390      4.12043      6.25707        -0.026018     -0.042205     -0.146554
O	      6.23834      6.18680      6.14438        -0.039049     -0.005313      0.107319
O	      6.20280      3.98683      8.32350        -0.005623      0.263669     -0.142090
O	      8.42106      6.20309      8.22339        -0.254017      0.035984     -0.026200
O	      2.07662      6.26846      6.32600         0.005635      0.094022     -0.083125
O	      4.05483      8.25294      6.15262        -0.035041     -0.031282      0.181030
O	      4.01340      6.04641      8.29454         0.114972      0.044298     -0.003456
O	      6.23428      8.22023      8.33289        -0.131029     -0.106999      0.011264
O	      6.25067      6.31706     10.31052        -0.011065      0.114918      0.028541
O	      8.23748      8.22987     10.44806        -0.084262     -0.016520      0.018972
