# total energy = -200.09241379 eV
 
CRYSTAL
PRIMVEC
0.047278 6.185082 6.273554 
6.195845 0.033006 6.287431 
4.122170 4.124383 0.030087 
PRIMCOORD
36 1
Li	      6.16788      4.16085      2.23130         0.002806      0.009936      0.072375
Li	      6.14452      2.16577      4.23969        -0.015591      0.014855      0.026412
Li	      8.19478      4.15011      8.34418        -0.030061      0.000016      0.001969
Li	      6.16878      6.16289      4.25749        -0.005436      0.004104     -0.026713
Li	      4.24142      4.12404      4.28672         0.008634      0.030489      0.013598
Li	      6.15029      4.13737      6.29827        -0.009358     -0.008408     -0.006159
Li	      0.08718      4.05624      4.10843         0.021435     -0.030341     -0.025674
Li	      4.26077      6.16228      6.30721         0.026727     -0.012058     -0.022948
Li	      6.23460      6.17791      8.24403        -0.022422     -0.037021     -0.024996
Sc	      8.17249      4.12859      4.23586         0.019846      0.081408     -0.049637
Mn	      2.09189      6.15814      4.18266         0.081075     -0.166231     -0.074566
Cr	      4.12418      2.07452      2.10805         0.048697     -0.061262      0.072957
Ni	      0.07041      6.19419      6.28003        -0.005433     -0.030300     -0.011446
Ni	      2.06081      2.06565      0.03043         0.098710     -0.010059     -0.012370
Ni	      4.12831      6.18647      2.13790         0.092631     -0.108968      0.161923
Ni	      4.12138      2.11735      6.26321         0.078088     -0.096644     -0.071787
Ni	      2.09823      4.13124      6.25903        -0.242206      0.130681     -0.059336
Ni	      4.15083      4.15345      8.35907        -0.059235      0.110857      0.043074
O	      2.23112      2.07909      2.03633         0.092283      0.014036      0.105504
O	      4.15931      4.08962      1.93221         0.030180     -0.077236      0.166353
O	      4.16800      2.07551      4.07561         0.033006      0.027750     -0.033768
O	      6.22856      4.13725      4.27121        -0.097009     -0.026042      0.026524
O	      6.20614      2.05384      6.48671        -0.008022      0.116319     -0.155222
O	      8.38623      4.16595      6.31357        -0.090254      0.020098      0.033556
O	      2.09486      4.25538      4.35884        -0.029830      0.118328     -0.206276
O	      4.00651      6.16648      4.04990        -0.110075     -0.016292      0.093956
O	      3.96951      4.12754      6.35573         0.302986      0.152851     -0.070936
O	      6.25655      6.38820      6.25681        -0.149255     -0.278035      0.011809
O	      6.15717      4.00986      8.35961         0.103409      0.127818     -0.035798
O	      8.23042      6.20346      8.53888        -0.149146     -0.085304      0.100540
O	      2.06467      6.13155      6.14576         0.109922      0.093610     -0.034165
O	      4.25227      8.26906      6.37918        -0.104326     -0.099960     -0.006301
O	      4.21128      6.31415      8.39064         0.025253      0.136787     -0.023035
O	      6.12891      8.29839      8.20025        -0.105831      0.033710      0.187993
O	      6.33065      6.22676     10.66195         0.061934     -0.000190     -0.144309
O	      8.27705      8.16698     10.51556        -0.004133     -0.079301     -0.023099
