# total energy = -240.46641259 eV
 
CRYSTAL
PRIMVEC
0.032951 6.330388 6.414321 
6.387798 0.037812 6.409163 
4.277390 4.235579 0.006562 
PRIMCOORD
36 1
Li	     10.54251      4.33304      6.42199        -0.022502     -0.039427      0.015082
Li	      8.45181      2.27926      6.42234         0.004210      0.004592     -0.003957
Li	      6.42759      4.27685      2.23703        -0.022330     -0.011058     -0.005370
Li	      8.33012      4.35559      4.37196        -0.002994     -0.008027      0.047597
Li	      6.43140      2.15764      4.33550        -0.025585      0.005304      0.037437
Li	      8.51332      4.21643      8.40528         0.018782      0.003439      0.011694
Li	      2.26494      1.97823      4.23087         0.007522      0.019343     -0.023604
Li	      6.55117      4.17116      6.27792        -0.010490     -0.013146     -0.050983
Li	      6.39142      6.38141      8.59685        -0.000636     -0.015097     -0.011081
Sc	      4.45006      4.17138      4.26045         0.019271     -0.020718     -0.142299
Mn	      4.15568      2.13721      2.12546         0.044112      0.022764     -0.104205
Mn	      0.09765      2.07591      2.09343         0.054679     -0.038010      0.078840
Mn	      8.56287      6.28658      6.40317        -0.053573     -0.009655      0.002421
Mn	     10.63588      8.56951     10.72359        -0.049987     -0.134822      0.294791
Mn	      8.48467      6.38203     10.70000         0.027362     -0.195748      0.119433
Mn	      2.15633      4.25285      6.41151        -0.132427      0.017477     -0.170513
Mn	      4.37859      6.33135      6.44041         0.031916      0.106847     -0.094558
V	      8.50626      8.52663      8.60273         0.030492     -0.074873      0.091798
O	      2.05729      2.13690      2.11051        -0.139957      0.010561     -0.002410
O	      4.28319      4.27839      2.17698        -0.001067      0.058191      0.048384
O	      4.28022      2.14533      4.19658         0.008014     -0.023321      0.016411
O	      6.38178      4.23200      4.27995         0.020911      0.030236      0.018467
O	      6.27553      2.12362      6.57108        -0.031644      0.021057     -0.090073
O	      8.50146      4.42453      6.41854        -0.070991     -0.010939     -0.000024
O	      2.18904      4.37851      4.37192         0.024074      0.086674      0.113845
O	      4.18959      6.38754      4.25091        -0.067379      0.074432      0.092373
O	      4.35603      4.13769      6.45748         0.113614     -0.081437     -0.116452
O	      6.50756      6.52195      6.38490         0.068736     -0.052104     -0.021664
O	      6.26065      4.19497      8.78518         0.198586      0.024580     -0.159777
O	      8.63041      6.47906      8.69436         0.018942     -0.187845      0.069086
O	      2.25617      6.21111      6.24794        -0.009315      0.027912     -0.119542
O	      4.23886      8.45504      6.33827         0.083253      0.011452     -0.093592
O	      4.31878      6.25580      8.47066         0.031649      0.254793      0.043955
O	      6.53392      8.48532      8.36883        -0.178543     -0.040100      0.059696
O	      6.58935      6.28168     10.66841         0.066982      0.020408      0.003454
O	      8.47725      8.29340     10.67309        -0.053689      0.156265      0.045342
