# total energy = -204.27639888 eV
 
CRYSTAL
PRIMVEC
0.024559 6.234973 6.238199 
6.116397 -0.008345 6.271111 
4.095742 4.196534 -0.023585 
PRIMCOORD
36 1
Li	      4.07939      4.15095      0.06350         0.015193     -0.081800     -0.066596
Li	      2.09425      2.12923      0.05128         0.029166     -0.032598     -0.020265
Li	      4.03673      2.15750      1.99968        -0.004052      0.007730     -0.024600
Li	      0.04239      2.00103      1.98357        -0.032016     -0.063085     -0.040082
Li	      4.11507      4.11969      4.20899        -0.013857     -0.047632      0.043067
Li	      4.12174      2.12149      6.27969        -0.032687      0.021824     -0.043748
Li	      2.05735      4.20299      6.26274         0.004527      0.004156      0.013418
Li	      4.07534      6.21869      6.27366         0.012159      0.024661     -0.045678
Li	      4.11468      4.13802      8.24004        -0.026766     -0.042290      0.007470
Sc	      2.16212      6.25001      4.27903         0.278452     -0.042111      0.042594
V	      6.07184      6.31307      8.17754         0.085544      0.181894      0.056697
Cr	      6.07682      2.13204      4.20518        -0.352472     -0.046326      0.020879
Co	      2.07547      2.10449      4.08366        -0.061085      0.027212     -0.385037
Cu	      2.11616      4.14194      2.01311         0.021809     -0.008886      0.084711
Ni	      8.16183      4.16678      4.23138         0.057453      0.105445      0.003870
Ni	      4.11242      8.36679      4.19570        -0.022199     -0.062536     -0.022982
Ni	      1.97309      0.04895      1.99191         0.159845     -0.123719      0.069750
Ni	      6.08247      4.12294      6.28187         0.056135      0.125498     -0.057320
O	      4.23251      4.14616      6.26445        -0.284064      0.020050      0.038999
O	      4.12619      8.36351      6.10708         0.009402     -0.039413      0.054271
O	      2.04847      2.10003      2.12470         0.007048      0.089268      0.118185
O	      4.06390      4.17092      2.01321        -0.204854      0.013413     -0.020095
O	      3.98762      2.00479      4.19676         0.892788     -0.063502      0.030879
O	      6.14120      4.14537      4.06530        -0.100994     -0.265856      0.013646
O	      6.08658      2.21390      6.13236         0.001515     -0.084225      0.075314
O	      8.01106      4.17304      6.28754         0.135461      0.024264      0.000034
O	      2.06128      4.12554      4.09158         0.127044      0.268345      0.056143
O	      4.26026      6.34565      4.16295        -0.826672      0.077880      0.070176
O	      6.12956      6.21089      6.40031         0.012176     -0.012782      0.007199
O	      6.18439      4.34201      8.41952         0.115076     -0.114269      0.060732
O	      8.01815      6.18373      8.38633         0.040149      0.077834     -0.046081
O	      2.08280      6.20943      6.26705        -0.000934      0.010316     -0.004107
O	      4.26927      6.21808      8.38191        -0.150342     -0.063594     -0.035685
O	      6.15731      8.15664      8.38719        -0.012658      0.091721     -0.052093
O	      6.13319      6.31687     10.35209         0.063179      0.005207      0.006958
O	      8.13120      8.32907     10.38760         0.001530      0.017905     -0.010628
