# total energy = -204.63070478 eV
 
CRYSTAL
PRIMVEC
0.057532 6.136322 6.247021 
6.383829 0.025705 6.280679 
4.252931 4.110682 0.019906 
PRIMCOORD
36 1
Li	      8.53069      8.22426     12.43075         0.030992     -0.055480      0.021654
Li	      6.42685      4.03500      2.25516         0.017989     -0.014068      0.038411
Li	      4.33804      2.05727      2.21095         0.099536     -0.030525      0.019389
Li	      4.30867      6.17271     10.38493        -0.130118      0.236126      0.010504
Li	      6.28866      2.12341      4.17330        -0.141697      0.078488     -0.074380
Li	      6.56870      6.09156      4.29482         0.117597     -0.052268      0.037812
Li	      4.22993      2.11640      6.18171        -0.054173     -0.093869     -0.020263
Li	     10.59432      8.31141     10.49088         0.112904     -0.168256     -0.030868
Li	      6.42748      8.19401      6.36453        -0.053902      0.054683      0.074126
Sc	      4.31929      6.27579      6.28819        -0.213716      0.030976      0.093653
V	      2.15135      3.87520      2.01815        -0.007829      0.385998     -0.410949
Cr	      8.46252      6.23333     10.44618        -0.010462      0.243798      0.281194
Co	      0.09625      6.12498      6.24004         0.016735     -0.093372     -0.119890
Cu	     10.61974      6.14114      8.35037         0.074939      0.164313      0.208468
Cu	      8.41634      8.23075      8.35336        -0.157579      0.057030      0.166295
Ni	      4.30825      4.04925      4.19109         0.728725     -0.908301      0.267260
Ni	      6.37368      4.08648      6.21255         0.295088      0.044021     -0.023775
Ni	      6.35834      6.22498      8.34031        -0.018744     -0.072333      0.062264
O	      6.46039      8.19627      8.37950        -0.058126      0.147688      0.030084
O	      2.23398      2.17400      2.12257         0.087122     -0.137106      0.038241
O	      4.09485      4.14272      1.98011         0.122802      0.034775      0.423081
O	      4.29158      2.18810      4.18041        -0.349428     -0.207910      0.049639
O	      6.21865      4.11058      4.23051         0.239268      0.347835     -0.047282
O	      6.44453      1.98122      6.40550        -0.048054     -0.048353     -0.189633
O	      8.64724      4.14115      6.44389        -1.060607     -0.142373      0.578043
O	      2.29605      4.20820      3.94923        -0.413465      0.240522     -0.233399
O	      4.11727      6.04066      4.11350        -0.206660      0.497126      0.044910
O	      4.31883      4.13659      6.36164        -0.109482     -0.082263     -0.471142
O	      6.35780      6.13168      6.29850        -0.101950      0.073065     -0.157835
O	      6.65934      4.09920      8.33758        -0.160815     -0.018795      0.098665
O	      8.39093      6.20085      8.47036        -0.107125     -0.138890     -0.054990
O	      2.07694      6.15321      6.12681         1.422685      0.033366     -0.258815
O	      4.31470      8.29658      6.23412        -0.064688      0.041259     -0.020929
O	      4.31542      6.08752      8.39107         0.032688     -0.036429     -0.178533
O	      6.59120      6.15331     10.57036         0.056600     -0.033325     -0.267675
O	      8.61167      8.09070     10.34445         0.012951     -0.377153      0.016666
