# total energy = -206.04411865 eV
 
CRYSTAL
PRIMVEC
0.034254 6.150527 6.318693 
6.222289 -0.006682 6.359691 
4.141163 4.120607 0.002658 
PRIMCOORD
36 1
Li	      4.27631      8.21019      8.48115        -0.049697      0.037249      0.082234
Li	      4.13342      0.04802      4.27815         0.013025      0.036439      0.032370
Li	      6.08021      2.12666      4.21656         0.000401     -0.040996      0.074085
Li	      8.27800      4.10041      8.36045        -0.123427      0.053485     -0.085315
Li	      4.22856      4.03966      4.24667        -0.030884      0.028281      0.015216
Li	      4.22551      2.00410      6.23490         0.011629     -0.056026     -0.079784
Li	      4.15061      8.22970      4.26616        -0.024517     -0.026117     -0.120037
Li	      4.14787      4.18617      8.41746         0.142264     -0.064918      0.022612
Li	      6.15012      6.13449      8.43764         0.007246     -0.189946     -0.013516
Sc	      2.19832      2.06213      4.20749        -0.003733      0.049273      0.345555
V	      8.22691      6.18820     10.39499        -0.008788      0.035286      0.035762
Cr	      6.23573      2.07017      8.46903        -0.265146      0.106308     -0.230854
Co	      6.26779     10.22392      8.47045         0.028812     -0.124249      0.333382
Cu	      6.23766      4.07700      6.37325        -0.138917      0.335051     -0.223572
Cu	      6.27190      8.21143      6.39426         0.165061     -0.096787     -0.223058
Cu	      4.16886      6.17138      6.42642         0.031562     -0.052638     -0.219900
Ni	     10.29929      4.10118      6.37136         0.233421      0.077395     -0.084605
Ni	      2.09056      2.09851      0.02503        -0.036826     -0.274697     -0.105439
O	      4.02052      6.17086      8.41880        -0.394562      0.129241      0.032419
O	      6.26035      8.33174      8.35649        -0.008440      0.335130     -0.170978
O	      1.99407      1.97846      2.11199         0.220945     -0.182114     -0.067998
O	      4.25791      4.20834      2.02544         0.390844     -0.288801      0.080948
O	      4.12162      2.05477      4.24252         0.069425      0.025223     -0.082453
O	      6.23865      4.11892      4.11522        -0.019560     -0.110883      0.656924
O	      6.24487      2.04223      6.44740        -0.046630     -0.075416      0.108629
O	      8.26233      4.07325      6.35759        -0.098101      0.031984     -0.091308
O	      2.11527      4.24463      4.30404        -0.009382      0.018720      0.349707
O	      4.04807      6.15553      4.13587        -0.062184      0.033246      0.051241
O	      4.19748      4.19061      6.35777         0.284708      0.170074      0.086208
O	      6.14610      6.17779      6.36669         0.314378     -0.289590     -0.134190
O	      6.23324      4.00061      8.38051        -0.051380      0.169181      0.276980
O	      8.32652      6.13365      8.62364        -0.035666     -0.000876      0.033617
O	      2.15555      6.11264      6.40045        -0.304465      0.499769     -0.778912
O	      4.21472      8.18139      6.30846        -0.230770     -0.259494      0.179576
O	      6.43272      6.12369     10.61586         0.032410     -0.040447     -0.073698
O	      8.33852      7.96021     10.65829        -0.003058      0.002660     -0.011849
