# total energy = -204.47065003 eV
 
CRYSTAL
PRIMVEC
0.017129 6.061627 6.028575 
6.718074 -0.005691 6.052358 
4.478054 4.055358 -0.002346 
PRIMCOORD
36 1
Li	      2.22267      2.02452      0.10359        -0.029814      0.027770     -0.123655
Li	      2.37886      6.12042      7.95593         0.048037     -0.014262     -0.063241
Li	      6.70510      2.08330      7.97063        -0.274977     -0.034871      0.125406
Li	      8.87885      4.07956      8.02520        -0.052054      0.184213     -0.073232
Li	      8.90748      6.03506      6.13771         0.021343     -0.068684      0.212816
Li	      8.90671      6.01119     10.00420         0.016238      0.070277     -0.111342
Li	      4.46935      6.07892      6.12572        -0.033302      0.088747     -0.029716
Li	      4.55921      3.94211      7.97232         0.054463     -0.103716      0.037966
Li	      6.70635      6.04064      7.97377         0.219943     -0.003268      0.143208
Sc	      6.85873      8.09350     10.00423         0.358149     -0.463012     -0.012815
V	      4.37040      4.20208      4.04405        -0.094804      1.315940     -0.152155
Cr	      4.52976      4.04374      0.06630         0.200388      0.389092     -0.484794
Co	      6.60769      4.06036      9.96926        -0.541557     -0.326835      0.377445
Cu	      4.43550      1.98837      2.01499        -0.002523     -0.145522     -0.438720
Cu	      4.58815      6.10492     10.08115        -0.029049     -0.368127     -0.128247
Cu	      2.28997      1.98104      4.00879        -0.281671      0.135156     -0.133901
Cu	      6.72488      4.05720      6.15397         0.004032     -0.142895      0.563166
Cu	      6.69963      8.07109      6.08760         0.087010      0.148786     -0.246174
O	      6.76118      4.04442      8.11099         0.122353     -0.051199     -0.801156
O	      8.94825      6.06111      8.05438        -0.020158      0.010283     -0.012225
O	      2.08077      5.98806      6.05769        -0.099465     -0.003402      0.038685
O	      4.45051      6.14028      8.21255        -0.061382     -0.305124     -0.157739
O	      2.40589      2.01879      2.11023         0.122501      0.020283      0.273489
O	      4.44797      3.95653      2.13288        -0.016608      0.351777      0.321394
O	      4.67056      1.99661      4.01893         0.076784      0.229055      0.169200
O	      6.36401      4.08575      4.17719        -0.144465      0.409519     -0.190254
O	      6.82635      2.01939      6.04207         0.095402      0.131586      0.054015
O	      9.21059      4.05202      5.89334         0.086443      0.037239      0.352929
O	      2.43799      3.95291      4.11252         0.126371     -0.442801      0.129398
O	      4.31728      6.00044      3.96482         0.096730     -1.226028      0.088924
O	      4.33780      4.05850      5.85384         0.204160     -0.093629      0.078495
O	      6.67111      6.03046      5.96759         0.068764     -0.022037     -0.372364
O	      4.56433      8.11840      5.94527        -0.363547     -0.389854      0.125495
O	      6.62603      8.07451      7.95600        -0.191463     -0.004055      0.326500
O	      6.88934      6.02434     10.14341         0.166338      0.514789      0.106209
O	      8.99038      8.27401     10.01735         0.061386      0.144810      0.006991
