# total energy = -204.01166136 eV
 
CRYSTAL
PRIMVEC
-0.008598 6.221773 6.217995 
6.220541 -0.043188 6.252755 
4.117811 4.141441 0.000774 
PRIMCOORD
36 1
Li	      4.17437      4.17999      0.11170         0.028984     -0.093679     -0.041107
Li	      6.11715     10.32014      8.25520         0.037745     -0.150087      0.009055
Li	      4.20052      8.31144      8.25149         0.060932      0.024022     -0.030088
Li	      6.11244      2.15446      4.06263        -0.014622      0.087483     -0.226658
Li	      4.26951      4.06232      4.10954         0.053352     -0.071062      0.043524
Li	      6.19149      4.09336      6.20737         0.020325      0.071974     -0.113644
Li	      6.22921      8.28015      6.38781         0.012674      0.003271      0.136687
Li	      8.16316      8.25814      8.25333        -0.165800      0.046096      0.024026
Li	      6.18698      6.27632      8.22313        -0.021664      0.187305      0.041658
Sc	      4.03967     -0.00170      4.06137         0.093983     -0.048480     -0.210037
V	      0.08261      4.20227      4.15686        -0.193617      0.381839      0.040998
Cr	      4.14266      2.14680      6.26011        -0.590021      0.090787     -0.106630
Co	      8.24665      2.02074      6.25312         0.278553     -0.034600     -0.135637
Ni	      4.11501      6.16258      2.07758         0.121616     -0.621772     -0.553652
Ni	      8.28586      6.19799     10.40135        -0.134219      0.006878      0.009563
Ni	      8.31815      4.08773      8.25985        -0.046728     -0.005854      0.092554
Ni	      6.20771      6.14713      4.17350         0.085325      0.027586     -0.058067
Ni	      4.11469      6.14654      6.30843         0.066482     -0.132631      0.229648
O	      6.15982      8.27913      8.33114         0.085066     -0.021311     -0.034924
O	      2.00414      2.13278      1.95212         0.129593     -0.030821     -0.031099
O	      4.06779      4.29131      2.09652         0.001805     -0.225308      0.184470
O	      4.12580      2.05617      4.29756         0.168132      0.059492      0.041187
O	      6.19294      4.16244      4.12997        -0.049897     -0.089229      0.064393
O	      6.19634      2.03460      6.30378         0.091194      0.078137      0.386515
O	      8.27113      4.11267      6.22692         0.047485      0.053195     -0.087071
O	      1.90344      4.12417      4.21128         0.059540     -0.052422      0.076140
O	      4.13240      6.31684      4.19573         0.010400     -0.101781     -0.248345
O	      4.16221      3.98112      6.26588         0.073459     -0.153281     -0.040590
O	      6.34871      6.17306      6.23424         0.220011     -0.056831      0.053843
O	      6.20906      3.91789      8.54794        -0.049576      0.559529      0.216221
O	      8.31250      6.11800      8.28816        -0.158459      0.075066     -0.011480
O	      2.08261      6.37349      6.15876        -0.162375      0.102089      0.058965
O	      3.96135      8.24373      6.07286        -0.083247      0.059946     -0.068633
O	      4.18181      6.19598      8.27206        -0.030786     -0.048398      0.113839
O	      6.23195      5.96008     10.35631        -0.059364     -0.057809      0.060469
O	      8.37909      8.23099     10.51501         0.013721      0.080661      0.113908
