# total energy = -206.89919032 eV
 
CRYSTAL
PRIMVEC
0.013928 6.203044 6.280580 
6.362998 0.007365 6.287072 
4.236924 4.134457 0.010530 
PRIMCOORD
36 1
Li	      8.46709      2.13045      6.27477        -0.050682     -0.044729      0.037149
Li	      6.26615      2.06444      4.24448        -0.060212      0.006586      0.092354
Li	     10.39828      6.29713      8.29847         0.063574     -0.091320     -0.112679
Li	      8.44559      4.18816      8.37822         0.048815     -0.010134      0.001169
Li	      8.54006      6.13649      6.42318         0.036955      0.068672     -0.022818
Li	      6.48644      4.03746      6.32269        -0.057205     -0.067932     -0.012525
Li	      6.29662      8.24765      6.27846         0.063970      0.056653     -0.022068
Li	      8.60574      8.13843      8.46480         0.026501      0.043061     -0.044856
Li	      6.50694      6.27443      8.37361         0.038247      0.009986     -0.022159
Sc	      6.29606      4.12740      2.11742        -0.216705      0.048028     -0.182407
V	      4.33302      5.99479      6.33187        -0.166839     -0.266759     -0.191526
Cr	      6.36143      4.18014     10.38064         0.285266     -0.041623      0.041523
Co	     10.43009      4.20778      6.24046         0.314067     -0.456350     -0.159507
Co	      4.18101      4.09416      4.15940        -0.052170     -0.176514      0.201895
Cu	      4.26597      8.27547      8.38665        -0.071811      0.023454     -0.022735
Cu	      8.44376      4.18383      4.30273         0.093102     -0.200564     -0.153686
Cu	      8.47972      6.22908     10.38751         0.039319      0.064956      0.112039
Ni	      2.13261      2.08891      4.18389         0.053839     -0.107442     -0.121736
O	      8.47703      6.24021      8.46564        -0.067560      0.051712     -0.122619
O	      8.70070      8.33073     10.45360        -0.153606      0.298627      0.031206
O	      2.36819      2.07083      2.14105         0.055509     -0.033374     -0.187878
O	      4.21523      4.08269      2.20629         0.050772      0.008318     -0.274021
O	      4.16137      2.06859      4.27596         0.156923     -0.054561      0.023457
O	      6.15776      4.15866      4.18070         0.220893     -0.104403      0.073239
O	      6.42834      1.86709      6.32725        -0.296057     -0.197534     -0.009042
O	      8.48099      4.14077      6.23314         0.359925      0.111237      0.147110
O	      2.16349      4.16073      4.20350        -0.220939      0.150108      0.121324
O	      4.26497      6.27439      4.32543        -0.149216      0.161368      0.074436
O	      4.26961      4.23929      6.23981        -0.055831     -0.046126     -0.036112
O	      6.10233      6.22460      6.24471        -0.025946      0.044660      0.208770
O	      6.42430      4.10478      8.57798         0.013843      0.069623     -0.067529
O	      2.40598      6.24213      6.22831        -0.017068      0.006624     -0.019203
O	      4.30914      8.40618      6.06791        -0.102647      0.472723      0.047252
O	      4.22451      6.20558      8.16921         0.007136      0.014709      0.266513
O	      6.14623      8.29228      8.37833         0.057313     -0.125362     -0.061346
O	      6.46599      6.15403     10.46555        -0.221476      0.313623      0.367017
