# total energy = -210.86109929 eV
 
CRYSTAL
PRIMVEC
0.018347 6.181238 6.307014 
6.162030 0.034355 6.290799 
4.132847 4.135162 -0.001324 
PRIMCOORD
36 1
Li	     10.27384      4.22948      6.35322        -0.015737     -0.007307      0.059306
Li	      6.12615      4.16447      2.19205        -0.021291     -0.008742      0.044855
Li	      6.19635      2.09069      8.27337        -0.016631     -0.033747     -0.037526
Li	      6.13693      6.18220      4.26025        -0.000630      0.000004      0.011459
Li	      4.23868      4.05796      4.19824         0.013563      0.007977     -0.041362
Li	      4.12085      2.13829      6.33744         0.009552     -0.053747      0.028164
Li	      6.13852      4.09993      6.27050        -0.016097      0.004342     -0.008729
Li	      4.24196      6.19839      6.39442        -0.005628      0.006323     -0.013350
Li	      6.18373      6.19414      8.28915        -0.021572     -0.008750      0.005485
Sc	      8.19110      4.20737      4.26008        -0.108423      0.210818      0.090452
V	      2.21803      6.06068      4.22542         0.242927     -0.179842     -0.003040
Cr	      4.12231      4.16175      8.35002         0.074192      0.010776     -0.003038
Co	      4.11306      2.10281      2.06609        -0.069161      0.116280      0.017072
Co	      8.24789      4.14540      8.29393         0.159757      0.057279      0.124257
Co	      6.20304      8.19323      6.35222         0.140965     -0.219109     -0.132891
Cu	      6.10168      2.12196      4.22981        -0.000786     -0.074682      0.037710
Cu	      6.21044      4.18951     10.49225         0.109384     -0.077128      0.066748
Ni	      8.17276      2.07950      6.32238        -0.022992     -0.047970      0.048207
O	      6.22679      6.38486      6.26559        -0.032587      0.178491      0.034882
O	      2.18282      2.19605      2.02612         0.142623      0.085405      0.175246
O	      3.97651      3.99703      2.05335         0.091419      0.047211      0.019067
O	      4.13150      2.09334      4.01066        -0.073547     -0.137328      0.021029
O	      6.16796      4.12667      4.21870         0.098721      0.163679      0.029782
O	      6.18165      2.07326      6.20652        -0.106028      0.004879      0.086029
O	      8.21681      4.12698      6.37529        -0.025783      0.141137     -0.056607
O	      2.17473      4.26333      4.05198        -0.085325      0.052908     -0.142254
O	      3.99956      6.31264      4.20255        -0.137833     -0.056960     -0.030279
O	      3.98602      4.16050      6.42482        -0.213625      0.003783     -0.006441
O	      6.19633      4.14750      8.46430        -0.217187     -0.001266      0.018934
O	      8.26160      6.21334      8.57284        -0.054920      0.038943     -0.127260
O	      2.08260      6.12270      6.07216        -0.026696     -0.162962     -0.037317
O	      4.25641      8.24543      6.38559         0.227822      0.010351     -0.105301
O	      4.11323      6.18776      8.47441        -0.036752     -0.033032      0.034037
O	      6.16292      8.29252      8.46840        -0.077297     -0.019529     -0.071432
O	      6.28363      6.17278     10.51027        -0.057169      0.053013     -0.044564
O	      8.13512      8.17173     10.45230         0.132771     -0.071497     -0.091332
