# total energy = -210.80266623 eV
 
CRYSTAL
PRIMVEC
-0.033838 6.206171 6.283833 
6.229265 -0.030251 6.280382 
4.159908 4.142249 -0.027100 
PRIMCOORD
36 1
Li	     10.28137      4.17280      6.33142        -0.079021      0.151353     -0.109725
Li	      8.25621      2.16108      6.28772        -0.226371      0.045980     -0.129148
Li	      6.14779      4.13960      2.09236        -0.075159      0.001780      0.125716
Li	      8.30766      4.10544      4.29512        -0.038347      0.003818      0.152036
Li	      6.22472      1.96114      8.18675         0.026803     -0.017015     -0.196930
Li	      4.20809      4.10575      4.07444         0.021172     -0.034534     -0.051548
Li	      8.38312      6.08304      6.28247         0.267671     -0.080544     -0.124861
Li	      6.34963      4.02952      6.32371         0.104877     -0.232343     -0.089197
Li	      8.31270      8.24046      8.38819        -0.038090     -0.081816      0.190270
Sc	      6.26677      6.12575      4.15153         0.268352     -0.158711     -0.038563
V	      4.07771      6.09018      6.34623        -0.673580      0.327318      0.000382
Cr	      4.16727      2.11251      2.08548         0.161002      0.004760      0.381809
Co	      6.21086      2.16359      4.29122         0.458731     -0.505500     -0.781321
Co	      6.14336      4.13074     10.40949        -0.388421      0.259671     -0.034000
Co	      6.23114      6.17885      8.35716         0.210907      0.070259      0.438943
Cu	      8.29154      4.12680      8.23666         0.003661     -0.053020      0.442898
Cu	      8.27420      6.19279     10.42974        -0.265472      0.262563     -0.170104
Cu	      6.22155      8.28338      6.29750         0.078698      0.067388     -0.141466
O	      8.16629      6.13004      8.39621        -0.221981     -0.056332     -0.131326
O	      2.15421      6.14073      6.22554         1.163064     -0.011613      0.415882
O	      2.12109      2.08227      2.11736         0.125681      0.125403     -0.166114
O	      4.12306      4.06181      2.06266        -0.273755      0.134566     -0.104502
O	      4.14696      2.08876      4.10426        -0.265414     -0.022284      0.098383
O	      6.24483      4.12819      4.13399        -0.068961      0.220023      0.110883
O	      6.23775      2.01793      6.07627        -0.106964      0.140480      0.428837
O	      8.31487      4.12593      6.35057         0.014009     -0.010913     -0.427658
O	      1.88898      4.16556      4.06452         0.504822     -0.046743      0.187175
O	      4.09042      6.29814      4.30498         0.582705     -0.708612      1.056525
O	      4.09582      4.30338      6.27809         0.061154      0.446298      0.087799
O	      6.14684      6.28303      6.36109        -0.603797     -0.145671     -0.127790
O	      6.20254      4.26729      8.35863         0.293257     -0.044484     -0.114274
O	      4.21131      8.13888      6.33641        -0.202634     -0.409414     -0.039354
O	      4.25355      6.26480      8.27263        -0.238341     -0.251415     -1.035764
O	      6.16608      8.15676      8.55652        -0.093523      0.047786     -0.058520
O	      6.26881      6.12063     10.27361        -0.163523      0.666035     -0.121484
O	      8.39603      8.19584     10.44946        -0.323211     -0.104519      0.076114
