# total energy = -211.40661046 eV
 
CRYSTAL
PRIMVEC
0.041342 6.240812 6.239468 
6.265653 0.038015 6.242201 
4.186906 4.171988 0.015679 
PRIMCOORD
36 1
Li	      4.14767      4.12292      0.15919        -0.071914      0.055861     -0.079307
Li	      2.19469      8.27739      6.34821        -0.052156      0.087128     -0.000478
Li	      1.99136      6.25104      8.14237         0.044102     -0.000024      0.115600
Li	      4.14079      2.26893      1.99358        -0.017634     -0.117419      0.083558
Li	      2.23813      4.13351      2.02129        -0.039724     -0.022703      0.053950
Li	      4.06631      4.25215      3.99938         0.041318     -0.003971      0.072694
Li	      8.38976      6.19118      6.28430        -0.012875      0.000766     -0.030861
Li	      2.22758      6.12160      4.25947        -0.001179     -0.040933     -0.114615
Li	      6.23861      8.43164      6.29238         0.011003     -0.087840     -0.025190
Sc	      6.21503      2.12777      4.22141        -0.039879      0.018401      0.016099
V	      4.19253      4.13611      8.25032        -0.057250      0.237471      0.325997
Cr	      2.10683      2.18913      4.10328         0.060450     -0.127577     -0.061199
Co	      8.35336      4.24204      4.27882        -0.153719     -0.192296     -0.427694
Co	      6.31765      4.19651      6.26584        -0.002751      0.045502     -0.094839
Co	      4.16347      6.28485      6.23936        -1.134147      0.199699     -0.011910
Ni	      4.22325      6.15791      2.04075        -0.022092      0.097911      0.149514
Ni	      4.22803      8.35416      4.25018        -0.075652      0.053819     -0.170583
Ni	      6.30221      6.26507      8.30964         0.006331      0.032941      0.001408
O	      4.18737      4.20586      2.06890         0.012856     -0.228695     -0.132256
O	      2.05791      2.04266      2.29614         0.205904     -0.044302      0.004700
O	      4.12395      2.01918      4.14251        -0.047858     -0.190081      0.304496
O	      6.40600      4.28732      4.33082         0.101070      0.044404      0.047296
O	      6.28227      2.25415      6.24990         0.000719     -0.003567     -0.047009
O	      8.22837      4.19055      6.21955         0.050318      0.045852     -0.826393
O	      2.08885      4.01892      4.21217         0.138088     -0.041675      0.025665
O	      4.29569      6.29691      4.25787         0.369349     -0.060880     -0.862101
O	      4.33981      4.31773      6.30002         0.129781     -0.184259     -0.134702
O	      6.18541      6.14808      6.19042         0.435651     -0.072999     -0.109765
O	      6.22263      4.18997      8.23509         0.089259     -0.007611     -0.121442
O	      8.38082      6.45968      8.35489        -0.055655     -0.039375      0.012664
O	      2.34927      6.23516      6.19692        -0.020071     -0.078586     -0.013927
O	      4.22324      8.12802      6.25244         0.065264      0.231762      0.184321
O	      4.24875      6.11645      8.20422         0.133240     -0.095856      1.440207
O	      6.42400      8.31044      8.34414        -0.048082      0.172653     -0.071211
O	      6.15169      6.27274     10.42131        -0.006351      0.099949      0.093267
O	      8.39896      8.52004     10.27265        -0.035713      0.216532      0.404046
