# total energy = -214.83193265 eV
 
CRYSTAL
PRIMVEC
0.011183 6.338907 6.183023 
6.321609 0.006434 6.186653 
4.186116 4.201052 0.031732 
PRIMCOORD
36 1
Li	      6.21882      4.20040      2.22532        -0.011804     -0.019963     -0.130596
Li	      4.21807      2.17864      2.13975         0.030624      0.025337     -0.117801
Li	      4.15665      0.18633      4.11090         0.103248     -0.132168     -0.002591
Li	      6.22929      2.12707      4.14580         0.136407     -0.182312     -0.008482
Li	      4.23407      4.15444      4.09409        -0.110940      0.162251     -0.015146
Li	      0.09628      4.21503      4.13793        -0.042572      0.027574      0.002416
Li	      6.15294      8.43270      6.20352        -0.048655      0.102066      0.023676
Li	      4.27383      6.38069      6.10113        -0.058369      0.018753     -0.025493
Li	      6.37397      6.33154      8.31748         0.064404      0.029759      0.109889
Sc	      2.21613      8.37381      6.11983         0.051802     -0.234222     -0.134440
V	      4.10011      4.52220      8.29066         0.038024      0.072160      0.173219
Cr	     10.45323      6.28834      8.28911        -0.371451     -0.013859      0.274389
Co	      2.05820      4.17655      2.07891         0.060071      0.174706      0.033449
Co	      4.20535      2.11394      6.09144         0.257551      0.208915     -0.027664
Co	      6.32295      4.24383      6.20575         0.075376     -0.173667      0.214898
Co	      2.05880      6.15728      4.16352         0.310336      0.410618     -0.106073
Cu	      2.16080      2.10221      4.14951        -0.032851     -0.040286      0.122105
Ni	      4.22567     10.47607      6.18896        -0.000116      0.037034     -0.247097
O	      1.95930      2.21039      2.08736         0.227075      0.005287      0.248385
O	      3.99955      4.27761      2.00770         0.001857     -0.073199      0.254923
O	      4.27885      2.13363      4.18351        -0.438211      0.109790     -0.069800
O	      6.28458      4.33933      4.28764         0.027942      0.029427     -0.062760
O	      6.29291      2.20704      6.23094         0.341578      0.296937     -0.036709
O	      8.31719      4.17976      6.29191        -0.248244      0.206056     -0.063896
O	      2.07933      4.14152      3.99261        -0.006958     -0.151839     -0.190266
O	      3.95493      6.27375      4.06640         0.105268     -0.089817      0.090969
O	      4.41364      4.21351      6.45488        -0.005736     -0.221226     -0.118414
O	      6.37999      6.17789      6.18898        -0.369888     -0.127443     -0.330122
O	      6.34017      4.14093      8.16305        -0.025740     -0.037615     -0.151262
O	      8.43482      6.16083      8.21282         0.008579     -0.157759      0.454005
O	      2.08165      6.33918      6.18614         0.062008      0.012917     -0.328146
O	      4.17866      8.44582      6.24284        -0.057133     -0.215059      0.075657
O	      4.23723      6.23894      8.27337        -0.030707     -0.091372      0.136132
O	      6.56501      8.46815      8.25536         0.012508      0.071528      0.023775
O	      6.54759      6.33815     10.32884        -0.044763     -0.030279      0.085640
O	      8.49231      8.43527     10.14516        -0.010517     -0.009032     -0.156769
