# total energy = -214.10383289 eV
 
CRYSTAL
PRIMVEC
-0.000413 6.363928 6.164496 
6.316061 0.001382 6.163195 
4.195304 4.225799 0.016617 
PRIMCOORD
36 1
Li	      2.16768      8.39097      6.11422        -0.014201      0.012741      0.010846
Li	      4.29509      8.46550      8.15000        -0.056073      0.026812      0.030504
Li	     10.44321      6.28913      8.18815         0.011298      0.002638      0.009312
Li	      8.37268      4.41825      8.18684         0.014485     -0.012645     -0.002050
Li	     10.45213      8.58338     10.36685        -0.056235      0.050160     -0.020230
Li	      8.33185      6.40137     10.32386         0.038826      0.030197      0.002347
Li	      6.10920      8.60691      6.25870         0.022716      0.061803      0.011147
Li	      4.08438      6.51840      6.20007        -0.039789      0.019734     -0.000003
Li	      6.36286      6.34927      8.24732        -0.038480     -0.014227      0.005178
Sc	      8.41312      8.37022      8.20555         0.051282     -0.021073      0.103992
V	      1.95695      2.35690      4.08877        -0.055312     -0.176340     -0.508057
Cr	      4.24070      4.19874      4.07752         0.064182      0.103401     -0.111774
Co	      0.07286      6.32939      6.18540        -0.011642      0.046916     -0.094182
Co	      8.41464     10.53563     10.26894         0.203844     -0.045847     -0.026573
Co	      6.29240      8.41994     10.28066         0.081258     -0.141131      0.009598
Co	      6.35930      4.17128      6.20196        -0.044920     -0.049633      0.144133
Ni	      2.13571      6.31050      8.16270         0.019372      0.061500      0.020796
Ni	      8.42881      6.30054      6.21654         0.004265     -0.017967      0.063917
O	      2.20068      1.97398      2.37317        -0.029160      0.197607      0.348856
O	      4.27679      4.27247      2.10520        -0.062194     -0.023885     -0.024551
O	      4.26851      2.20454      4.14679         0.010701     -0.092068     -0.167324
O	      6.29527      4.06647      4.21254        -0.052896     -0.037119      0.012434
O	      6.28511      1.95781      6.06552         0.121677     -0.150674     -0.055921
O	      8.32667      4.24294      6.01497        -0.095240     -0.123791     -0.054521
O	      2.17441      4.11260      4.09677         0.053562      0.171542      0.065889
O	      4.38212      6.31602      4.14903         0.069652     -0.047558      0.039302
O	      4.36302      4.18627      6.09180         0.023062      0.095665     -0.073069
O	      6.39231      6.25835      5.90536        -0.065180      0.021562      0.056511
O	      6.34856      4.21320      8.07749        -0.086318      0.038254     -0.081600
O	      8.39922      6.36569      8.24084        -0.030734     -0.045484      0.128483
O	      2.06922      6.36407      6.17691        -0.043077     -0.012394     -0.089363
O	      4.16894      8.69991      6.15110         0.022910      0.115496      0.038395
O	      4.20002      6.32876      8.38007         0.090473     -0.001261      0.093426
O	      6.31917      8.48477      8.33216        -0.002783     -0.134032      0.041686
O	      6.16547      6.51120     10.34795         0.003576     -0.006032      0.094425
O	      8.23583      8.49641     10.28738        -0.122906      0.097134     -0.021958
