# total energy = -218.88844241 eV
 
CRYSTAL
PRIMVEC
0.011316 6.265965 6.280846 
6.191501 0.001185 6.290220 
4.118898 4.174932 0.009303 
PRIMCOORD
36 1
Li	     10.22719      4.18586      6.24986        -0.175968      0.075066     -0.030528
Li	      4.13280      8.30530      8.37626        -0.038086     -0.039854     -0.090518
Li	      4.23054      0.07069      4.27897         0.037176     -0.007154      0.154426
Li	      6.11249      2.01883      4.28953         0.088491     -0.084571      0.198640
Li	      6.22812      2.13894      8.27175        -0.035499      0.047226     -0.254816
Li	      8.15989      4.22325      8.33198        -0.020666      0.066795     -0.181068
Li	      6.27704      4.15526      6.32650         0.077557     -0.217504      0.009772
Li	      6.14716      8.30145      6.28337        -0.007048      0.025496      0.010800
Li	      6.22597      6.18389      8.40208         0.085521     -0.077865      0.143691
Sc	      4.22650      4.16902      8.34164         0.075938     -0.254047     -0.107205
V	      6.05505      4.13784      2.16216         0.090886      0.152084     -0.641553
Cr	      8.21435      6.23219     10.48878        -0.139561      0.320162     -0.390890
Co	      8.19926      2.19409      6.30595         0.245005      0.213842     -0.534661
Co	      2.09160      2.14414      4.17105         0.290731     -0.075516      0.480345
Co	      4.12518      4.12900      4.21427        -0.061091     -0.039232      0.321361
Co	      8.29898      6.16350      6.32576         0.249817     -0.027409      0.227059
Co	      6.18992      4.20477     10.48833        -0.067780      0.142032      0.145860
Co	      4.17063      6.29891      6.31475        -0.506241      0.095847      0.081799
O	      2.08241      1.94229      1.99965         0.077096     -0.144247      1.166606
O	      4.28635      4.17698      2.04595         0.050217      0.034959      0.350460
O	      4.08779      2.12752      4.30457        -1.400723     -0.022778     -0.786334
O	      6.19379      4.26088      3.98255         0.225080      1.083536      0.364373
O	      6.31561      2.10685      6.25693         0.108303      0.032050     -0.080269
O	      8.24353      4.19929      6.29619        -0.047891     -0.908184      0.066086
O	      1.99631      4.22636      4.21855        -0.198279     -1.319825      0.046107
O	      4.11076      6.30233      4.34152         0.885163      0.081536     -0.314739
O	      4.14034      4.07931      6.30354        -0.128120      0.420621     -0.234040
O	      6.03895      6.26769      6.27172         0.128895      0.025125     -1.272193
O	      6.20785      4.16658      8.55571         0.029513      0.031614      0.119215
O	      8.26878      6.27823      8.44919        -0.104926      0.036329      0.558347
O	      2.19816      6.32102      6.31973         0.055087      0.321136      0.151651
O	      3.97725      8.35404      6.14195         0.076367     -0.004808     -0.080168
O	      4.02286      6.27568      8.26310         0.038218      0.097348      0.050721
O	      6.19185      8.59542      8.37746        -0.091509     -0.024720      0.123093
O	      6.26794      6.12495     10.47588         0.127622      0.102346     -0.056680
O	      8.34011      8.27930     10.52382        -0.019296     -0.157437      0.285252
