# total energy = -202.13477656 eV
 
CRYSTAL
PRIMVEC
-0.008740 6.217474 6.195961 
6.274591 -0.006146 6.193409 
4.195451 4.155901 -0.016643 
PRIMCOORD
36 1
Li	      8.35650      8.25082     12.34570        -0.045825     -0.001633      0.006516
Li	      2.13342      6.25757      8.20491         0.016047      0.023273     -0.031940
Li	      4.24955      8.20752      8.22793         0.035224      0.026032      0.049108
Li	      6.30742      8.27372     10.25537        -0.000536      0.064657     -0.046076
Li	      8.31541      6.20379      6.20506        -0.010203      0.020674      0.018241
Li	      6.27735      4.20313      6.16843         0.005208      0.008658     -0.047212
Li	      6.24060      8.25384      6.26515         0.030669      0.013699      0.011463
Li	      4.23097      6.28610      6.29969         0.015310     -0.018282      0.027495
Li	      8.30988      8.32262      8.27255        -0.100744      0.006757     -0.018485
Sc	      8.37025      4.10526      8.16236         0.082011     -0.047011     -0.046696
V	      4.29917      4.04029      4.29416         0.078976      0.057556      0.406420
Cr	      0.08833      6.24891      6.19151         0.054561      0.151026      0.018815
Cu	     10.37997      8.31675     10.33573        -0.063619      0.005377      0.050388
Ni	      8.36884      6.27225     10.32788         0.038020     -0.048312      0.019977
Ni	      8.36322     10.32661     10.28530        -0.152003      0.090861      0.037719
Ni	      6.24692      2.07885      8.22803        -0.061000     -0.000596     -0.042534
Ni	      6.25170      6.24669      4.17149         0.008260      0.004610      0.040097
Ni	      6.23816      6.26764      8.18920         0.098230     -0.089131     -0.087452
O	      6.27217      8.13181      8.23555        -0.040904      0.229272     -0.029286
O	      2.01261      2.08980      2.17442         0.099235     -0.018004     -0.061697
O	      4.18891      4.16386      2.00773         0.028643     -0.135653     -0.080987
O	      4.14590      2.24831      4.11873         0.066326     -0.053005     -0.015756
O	      6.13474      4.17309      4.10660        -0.008808     -0.085559     -0.014779
O	      6.24765      1.88976      6.22705        -0.006481     -0.037484     -0.132447
O	      8.48870      4.14172      6.12339        -0.006844     -0.000944      0.092980
O	      2.32017      4.18971      4.10602        -0.052388     -0.034933     -0.020210
O	      4.17632      6.11745      4.07011         0.011686     -0.054379      0.082978
O	      4.23428      4.15645      6.00975         0.046032     -0.050493     -0.210841
O	      6.27061      6.21554      6.16446        -0.000138     -0.009400      0.010394
O	      6.26820      4.20191      8.39517        -0.067756      0.010532      0.101856
O	      8.28660      6.22485      8.28269         0.011063     -0.002182     -0.067538
O	      1.93228      6.20182      6.15974        -0.077847      0.001906      0.106413
O	      4.15187      8.45513      6.02992        -0.026810     -0.063042     -0.115974
O	      4.30806      6.23654      8.31681        -0.151357      0.001670     -0.097068
O	      6.28366      6.19379     10.37361        -0.015368      0.036521      0.098279
O	      8.36920      8.29020     10.32660         0.163131     -0.003038     -0.012159
