# total energy = -135.97848290 eV
 
CRYSTAL
PRIMVEC
0.000302 4.191469 -0.000285 
-10.487174 -2.096753 3.952817 
2.090447 -2.095861 3.935319 
PRIMCOORD
24 1
Li	     -7.30844      1.04671      4.92664        -0.019836      0.001346      0.014182
Li	     -5.28515     -1.04765      4.93706         0.022970     -0.003682     -0.013546
Li	     -3.21269      1.04847      4.93067         0.019832     -0.005660     -0.017584
Li	     -1.07387     -1.04845      4.91804        -0.000094      0.000515      0.003919
Li	     -9.37981     -1.04999      4.93320        -0.018378      0.003174      0.014897
Li	     -1.03008      3.14302      0.99341        -0.004954      0.000601      0.000347
Mn	      1.09954     -1.04879      2.95599        -0.021881     -0.005077     -0.053521
Mn	     -1.05247      1.04711      2.95578         0.000724     -0.000264     -0.003574
Mn	     -3.20502     -1.04819      2.95571         0.022355      0.003920      0.051037
Ni	     -5.30264      1.04779      2.95156         0.031255      0.000977      0.041943
Ni	     -7.34167     -1.04856      2.96415        -0.000870      0.000588      0.001020
Ni	     -7.28988     -1.04954      6.91213        -0.033049     -0.001426     -0.042406
O	     -7.44490     -3.14553      6.92470        -0.051752     -0.005921      0.024721
O	     -7.34153      1.04717      2.96420        -0.000606     -0.002717     -0.001207
O	     -5.14778     -1.04792      2.93948         0.054503      0.006551     -0.029159
O	     -3.06334      1.04726      2.94163         0.069640      0.000027     -0.014945
O	      0.95853      1.04702      2.96960        -0.069633      0.001760      0.018415
O	     -1.05229     -1.04869      2.95599        -0.002162     -0.002095     -0.002611
O	     -7.34147     -1.04964      4.89551        -0.008583      0.012607     -0.020005
O	     -5.25048      1.04835      4.96788         0.004282     -0.009939      0.024063
O	     -3.14703     -1.04794      4.82844         0.031040     -0.002150     -0.111130
O	     -1.04053      1.04702      4.90072         0.010804      0.003338     -0.012384
O	     -9.44518      1.04564      5.03561        -0.027508      0.004881      0.108146
O	     -1.06424      1.04697      1.01062        -0.008098     -0.001354      0.019380
