# total energy = -202.58992294 eV
 
CRYSTAL
PRIMVEC
0.014151 6.304165 6.237711 
6.171617 0.020108 6.231979 
4.121362 4.205966 0.006249 
PRIMCOORD
36 1
Li	      6.17115      4.13290      2.25414        -0.060537     -0.088851      0.008976
Li	      4.12562      6.37475     10.30011        -0.086293      0.098173     -0.011743
Li	      6.16697      8.39392     10.29737        -0.023789      0.022796      0.041209
Li	     10.28210      6.35678      8.36010        -0.015264      0.001392     -0.017127
Li	      2.12583      2.05871      4.05860        -0.004149     -0.094705      0.097568
Li	      4.11218      2.10440      6.20363        -0.035001      0.043881     -0.067703
Li	      6.16186      4.27938     10.25065         0.021122     -0.009520      0.009271
Li	      6.22039      8.42821      6.31600        -0.020181     -0.024163      0.001433
Li	      6.20229      6.34381      8.44312        -0.053698     -0.018211     -0.009494
Sc	      6.24474      4.10603      6.18259         0.087021      0.000970     -0.045698
V	      4.23054      6.34275      6.25071         0.533643     -0.037042      0.105803
Cr	      6.19401      0.05658      6.22700        -0.159514     -0.046830      0.172435
Cu	      2.08532      8.37484      6.21058        -0.107326      0.266124     -0.035613
Cu	      4.16450      2.11288      2.18108         0.075317      0.042103     -0.186063
Cu	      8.23150      4.27745      8.36062        -0.103993      0.018827     -0.467252
Cu	      8.19070      6.31458     10.36600        -0.176452      0.111652      0.020914
Ni	      4.12878      4.16613      4.11744         0.211817      0.029399     -0.009881
Ni	      8.16633      8.38571      8.38515         0.181259     -0.025791     -0.368465
O	      6.07850      8.37853      8.29790        -0.113638     -0.021717      0.035613
O	      6.21171      6.27348     10.57421        -0.191531     -0.114953     -0.768387
O	      8.24280      8.32044     10.34381         0.007573     -0.352320      0.551835
O	      2.23869      2.26425      2.07201         0.009301     -0.259330     -0.165744
O	      4.08115      4.28897      1.96148         0.247019      0.173709      0.590610
O	      4.12220      2.16079      4.07148        -0.018753     -0.156646      0.040040
O	      6.14294      4.24429      4.19873         0.158642     -0.000606     -0.112540
O	      6.27544      2.02821      6.24544        -0.177938      0.306441      0.007208
O	      8.34116      4.26229      6.27549        -0.484544     -0.037216      0.035233
O	      2.12194      4.29784      4.07438        -0.183179      0.362737      0.219338
O	      4.05230      6.27619      4.41931         0.176687      0.119684     -0.146675
O	      4.12140      4.36689      6.28828        -0.026473     -0.074369     -0.149367
O	      6.00537      6.32321      6.20710        -0.140338     -0.006080      0.061402
O	      6.20413      4.20229      8.27008        -0.140473      0.004528      0.229050
O	      8.22283      6.32945      8.39447        -0.004593     -0.006315      0.122080
O	      2.03770      6.31063      6.15641         0.462059     -0.112573     -0.050948
O	      4.06270      8.32894      6.32509         0.234144     -0.117176      0.185918
O	      4.04311      6.21501      8.08718        -0.077948      0.002000      0.076765
