# total energy = -202.48791974 eV
 
CRYSTAL
PRIMVEC
-0.014618 6.386427 6.393971 
6.091811 0.027658 6.350940 
4.059917 4.228221 0.018699 
PRIMCOORD
36 1
Li	      4.07897     10.53555      6.42879        -0.060185      0.022853     -0.001531
Li	      2.08243      8.45873      6.35516        -0.075451      0.045071     -0.012243
Li	      1.96969      6.39081      8.43871         0.076262     -0.017416     -0.061164
Li	      4.07144      8.41624      8.40571        -0.071595     -0.135812     -0.037972
Li	      4.09834      4.26453      4.21258        -0.022995     -0.006476     -0.033535
Li	      4.06032      2.13761      6.30461         0.009229     -0.071208      0.009682
Li	      4.04005      8.52748      4.46582         0.008819     -0.024299      0.079451
Li	      4.00744      6.48431      6.41308         0.018604     -0.002876      0.117061
Li	      6.02086      6.46666      8.59337        -0.051086      0.015217      0.001727
Sc	      4.05179      4.32292      8.53006        -0.119346      0.509640     -0.402951
V	      2.05205      2.23381      4.26673         0.125703     -0.029409      0.129410
Cr	      6.08803      4.17077      6.33332         0.396239      0.505809     -0.084759
Cu	      6.04067      2.12404      4.20340        -0.292315      0.136243      0.066519
Cu	      4.07604      6.30921      2.16096         0.154315      0.129706     -0.254437
Cu	      8.16349      4.31809      8.43673         0.026051     -0.193313     -0.176485
Cu	      2.01895      6.36045      4.34970        -0.243082      0.446433     -0.026305
Cu	      5.99486      8.57742      6.45426         0.214448      0.072269      0.108174
Ni	      4.05023      6.38292     10.60435         0.062614      0.316500     -0.008804
O	      2.05510      6.37351      6.23792         0.153910      0.011166      0.043771
O	      4.10142      8.47050      6.40783         0.060477     -0.059702     -0.040326
O	      6.05159      8.50796      8.35956         0.063044      0.045575      0.159447
O	      6.07244      6.57300     10.63824         0.253626     -0.127891      0.018277
O	      2.01034      2.15135      2.32989        -0.071559      0.100956      0.267570
O	      3.96399      4.35864      2.09395        -0.040806     -0.010099      0.062506
O	      3.92936      2.07861      4.21380        -0.004504      0.022999     -0.002865
O	      6.05431      4.20433      4.35501        -0.077422     -0.066340     -0.216867
O	      6.08135      2.34478      6.47938        -0.019102     -0.836073     -0.161014
O	      7.96652      4.28103      6.20055         0.122444     -0.020637      0.432689
O	      2.06287      4.03787      4.44765        -0.124682     -0.062203      0.068055
O	      4.21448      6.33401      4.19783        -0.013672      0.048755     -0.161949
O	      4.19042      4.24359      6.43702        -0.670010     -0.019375      0.031716
O	      6.07412      6.16159      6.14626        -0.010566      0.081668     -0.182913
O	      6.19585      4.24008      8.34969        -0.039601     -0.004631      0.235101
O	      8.16375      6.34570      8.68844         0.003888      0.033545      0.218698
O	      4.04911      6.36538      8.65829        -0.010821     -0.511036     -0.465308
O	      8.02249      8.61142     10.62302         0.269125     -0.345607      0.281573
