# total energy = -203.07161207 eV
 
CRYSTAL
PRIMVEC
0.039016 6.202679 6.379229 
6.262274 0.063470 6.353353 
4.217900 4.161114 -0.000158 
PRIMCOORD
36 1
Li	      6.26852      0.11612      6.33828        -0.040773     -0.008085     -0.075578
Li	      6.32093      2.11289      4.29428         0.006147     -0.021505      0.000347
Li	     10.37514      6.37686      8.46768        -0.070698      0.017632     -0.015569
Li	      8.35439      6.32642      6.48260        -0.013962     -0.060668      0.043978
Li	      8.42133      6.30124     10.57891        -0.053923      0.011124     -0.041024
Li	      6.38660      8.19823      6.40832         0.014112     -0.002034     -0.041827
Li	      4.26112      6.22055      6.26202        -0.039954      0.021183      0.055351
Li	      8.40197      8.18965      8.39592        -0.037101     -0.021536     -0.026034
Li	      6.42980      6.28483      8.37026         0.038421      0.009577     -0.060199
Sc	      6.28221     10.36679      8.43779         0.123744     -0.105445     -0.046129
V	      4.37644      6.17612     10.56413         0.138279     -0.090898      0.039530
Cr	      4.19729      2.09953      2.12192         0.094283     -0.010271      0.123564
Cu	      8.33829      2.13439      6.35945         0.106671     -0.035126      0.060697
Cu	      8.34394      4.29756      8.55892         0.003582      0.158332     -0.511127
Cu	      6.28574      6.25649      4.31815         0.297380      0.032006      0.154325
Cu	      4.19039      4.21354      4.34808        -0.357317      0.112016     -0.150606
Cu	      6.26277      4.19650      6.38358        -0.036073      0.008375      0.185526
Cu	      4.24200      8.24815      4.24859         0.255726      0.095333     -0.283670
O	      6.39520      4.23338      8.37147        -0.070076     -0.054841      0.158990
O	      8.40464      6.18950      8.50155         0.026785      0.131579     -0.075362
O	      4.02363      8.30587      6.54262         0.001043      0.026856     -0.119344
O	      6.15505      6.21138     10.65459         0.036190      0.001661      0.009317
O	      8.46650      8.52264     10.44540        -0.021724     -0.183274     -0.100002
O	      2.18659      2.15520      2.30216        -0.085967      0.054854      0.156209
O	      4.16499      4.10178      2.31164        -0.036076      0.102252      0.222776
O	      4.17955      1.90626      4.20031         0.097081     -0.051948      0.036048
O	      6.42811      4.23485      4.23724         0.217980     -0.203118     -0.131525
O	      6.46403      2.19361      6.33363        -0.141560      0.071096      0.013083
O	      8.33431      4.06025      6.18640         0.008438      0.068238     -0.390544
O	      2.02289      4.10309      4.22486        -0.058817     -0.090647      0.916325
O	      4.31480      6.30859      4.22587        -0.246829      0.054348      0.087974
O	      4.28610      4.15127      6.25815        -0.029196      0.084884     -0.160516
O	      6.31197      6.17702      6.27048        -0.010646     -0.169002      0.053951
O	      2.08467      6.39429      6.39950        -0.022894     -0.026765      0.046825
O	      4.18833      6.29549      8.67337        -0.062974      0.061749     -0.111402
O	      6.22546      8.35747      8.43259        -0.029303      0.012066     -0.024358
