# total energy = -210.42977209 eV
 
CRYSTAL
PRIMVEC
0.036098 6.204987 6.273621 
6.296372 0.022866 6.287426 
4.217432 4.166383 -0.005197 
PRIMCOORD
36 1
Li	      0.13100      6.21504      6.27418        -0.022877      0.011002      0.028230
Li	      2.20506      8.13238      6.24201        -0.046708      0.011020      0.068428
Li	      2.08537      0.06651      2.04658        -0.004326      0.013096     -0.075701
Li	      4.31260      6.22025      2.19238         0.028957     -0.015832     -0.068009
Li	      2.10476      4.07100      2.15222         0.016384     -0.024053      0.014351
Li	      4.34834      4.20030      4.14559        -0.082584     -0.049100     -0.024196
Li	      6.26303      4.19745      6.18717         0.038274     -0.046531      0.040775
Li	      8.44828      6.39370     10.57297        -0.030718     -0.086326      0.015063
Li	      4.07601      6.29632      6.21335         0.012663      0.012914      0.078017
Sc	      2.09779      4.25100      6.23232         0.014894      0.033116     -0.031955
V	      8.56068      6.16977      6.45130         0.010112     -0.010206     -0.166975
Cr	      4.08476      2.21103      2.07722         0.185510     -0.153414     -0.200228
Fe	      6.27534      6.15482      8.39310         0.092211      0.126065      0.122280
Co	      6.25727      6.17339      4.15997        -0.123785      0.073341      0.063491
Cu	     10.47013      8.28324     10.48543         0.058066      0.065840      0.185204
Ni	      4.19312      0.03324      4.17765        -0.151569      0.002060      0.077787
Ni	      6.32184      2.13937      4.18503        -0.018576      0.171821      0.041484
Ni	      4.22545      4.19676      8.36967        -0.019604      0.030519     -0.000145
O	      2.26872      2.05929      2.09022        -0.162042      0.061474      0.054536
O	      4.22711      3.98359      2.11285         0.012701      0.096770     -0.001141
O	      4.18981      2.09685      4.14055        -0.311118      0.090987      0.080740
O	      6.35742      4.28248      4.17385        -0.063026      0.029692      0.003049
O	      6.12435      2.12696      6.22427         0.060601     -0.003260      0.059611
O	      8.43172      4.41130      6.23432        -0.008138     -0.052367      0.110149
O	      1.96194      3.91550      4.17893         0.288806     -0.061705     -0.038588
O	      4.29845      6.26589      4.20629         0.340426     -0.062144     -0.073821
O	      4.18871      3.95904      6.30428         0.066371      0.090854     -0.070796
O	      6.52506      6.21697      6.36148        -0.008030      0.050348     -0.179316
O	      6.26469      4.19368      8.49001         0.104615     -0.203483     -0.327145
O	      8.43887      6.23287      8.24623         0.021845     -0.098427      0.199983
O	      2.13274      6.18220      6.24069         0.019006      0.062334     -0.026476
O	      4.23503      8.30329      6.34340        -0.118144      0.084805      0.133989
O	      4.31881      6.31722      8.35203        -0.142422      0.088645     -0.095595
O	      6.28704      8.23542      8.40562        -0.131221      0.016087     -0.120926
O	      6.32305      6.21773     10.37781         0.152815     -0.184303      0.029987
O	      8.42270      8.37936     10.40585        -0.079369     -0.171637      0.093860
