# total energy = -210.81172818 eV
 
CRYSTAL
PRIMVEC
0.047968 6.271029 6.365401 
6.269120 0.029315 6.383351 
4.170521 4.184252 0.027246 
PRIMCOORD
36 1
Li	      2.06401      2.21247      0.16267         0.001576     -0.053621     -0.018029
Li	      2.18529      0.11112      2.24080         0.015518      0.079652     -0.058507
Li	      4.06086      2.11777      2.29852        -0.073119     -0.002794     -0.061526
Li	      4.12865      0.10330      4.12186         0.031662     -0.033092      0.060047
Li	      4.18008      6.23023      2.29670         0.047714     -0.048997     -0.082772
Li	      2.17213      2.12515      4.20709        -0.051100      0.010075      0.012239
Li	      8.28997      6.24404      6.38524        -0.030872     -0.014766      0.027785
Li	      8.46054      6.23838     10.46752         0.035531      0.002356     -0.010272
Li	      6.39351      8.28330      6.46984         0.036267      0.054112      0.031314
Sc	      4.27154      6.39808      6.41016        -0.128427      0.017410      0.093073
V	      0.31184      6.26684      6.33079         0.083821     -0.110935      0.177423
Cr	      6.30024      8.38673     10.61567         0.134289     -0.084897      0.114631
Fe	      2.07636      4.11461      2.13432         0.038935     -0.097291     -0.269558
Co	      6.27807      4.23655      6.43585        -0.051380      0.092266      0.085793
Cu	      4.16519      4.18514      4.27878        -0.002636      0.139661      0.133348
Cu	      8.38798      8.38070      8.55238         0.038183     -0.089563     -0.062096
Ni	     10.44404      8.35212     10.59349        -0.049023     -0.014030      0.003747
Ni	      6.28707      6.33076      8.51154        -0.052219      0.009149     -0.011832
O	      6.48206      8.36247      8.60769        -0.064114      0.173881      0.062659
O	      2.04545      2.26538      2.12684         0.062738     -0.255249      0.026495
O	      4.12000      4.16648      1.77364         0.053911     -0.072931      0.057208
O	      4.27738      2.25025      4.25320         0.123523     -0.049868      0.023461
O	      6.21956      4.10649      4.51801         0.002710      0.031891     -0.277828
O	      6.29144      1.85861      6.23795        -0.049627      0.024346     -0.008789
O	      8.14721      4.16429      6.54552        -0.045789     -0.026032     -0.269388
O	      2.11376      4.15735      4.03526         0.158274      0.038828      0.393206
O	      4.17542      6.19759      4.33339        -0.050885     -0.040563     -0.021133
O	      4.32689      4.20490      6.61920         0.053144      0.016657     -0.244014
O	      6.26249      6.31990      6.45267         0.089794     -0.082776     -0.147554
O	      6.18228      4.20395      8.43909        -0.159452     -0.049652      0.092150
O	      8.31048      6.02014      8.50760         0.115834      0.262341      0.006579
O	      2.05468      6.24365      6.37596         0.033268     -0.002940     -0.048244
O	      4.20574      8.54079      6.22899        -0.013827     -0.005631     -0.011350
O	      4.23741      6.46240      8.46646        -0.140059      0.122102      0.032810
O	      6.25101      6.31363     10.77717         0.037560      0.071134     -0.038685
O	      8.38448      8.35896     10.42095        -0.231723     -0.010233      0.207609
