# total energy = -210.11033569 eV
 
CRYSTAL
PRIMVEC
-0.014281 6.184179 6.203094 
6.281332 0.003461 6.185584 
4.191475 4.115327 -0.001791 
PRIMCOORD
36 1
Li	      2.08694      0.02131      2.04870        -0.064671     -0.028315      0.016858
Li	      6.32077      8.22987     10.35100         0.020571     -0.024735      0.021791
Li	      0.05144      2.05198      2.04624         0.078083      0.042530     -0.025208
Li	      8.33808      4.13324      8.25585        -0.068367      0.094533      0.001821
Li	      2.08034      2.07611      4.13307         0.029202      0.017695      0.059631
Li	      8.37093      6.18179      6.19112        -0.040563      0.016289      0.033789
Li	      8.34559      6.21824     10.30729        -0.025476     -0.002844     -0.077809
Li	      4.19882      6.12864      6.18679         0.127946     -0.105486     -0.003745
Li	      8.34760      8.22847      8.30637         0.004854     -0.091695      0.029094
Sc	      4.11379      2.03971      2.06777         0.149929     -0.012286      0.043058
V	      4.17628      4.23305      4.09841         0.025157      0.109684     -0.000231
Cr	      6.28148      4.10331      6.20420        -0.034444     -0.072646      0.117883
Fe	      6.38026      6.17825      8.26130        -0.237444     -0.105905      0.027902
Co	      6.27525      0.05385      6.13290        -0.058453      0.192269      0.136925
Cu	      8.32046      8.20901     12.37927         0.071302     -0.151196      0.160729
Cu	      8.35601     10.25943     10.31956         0.028556      0.261531     -0.277772
Cu	      2.13928      4.11297      6.19870        -0.050163      0.023248      0.131215
Ni	     10.44295      8.21035     10.28840         0.173862     -0.186734     -0.142602
O	      1.87660      6.20562      6.22647         0.020428     -0.252661      0.031596
O	      8.41376      8.26403     10.39615        -0.141540      0.044481      0.009485
O	      2.11649      2.05028      1.98666        -0.081381     -0.033855     -0.044994
O	      4.16939      4.14105      2.17633        -0.080811      0.070519     -0.018376
O	      4.17421      2.22017      4.08664        -0.007412     -0.171156      0.049105
O	      6.07814      4.12498      4.20117         0.129787     -0.032179     -0.086311
O	      6.33987      2.02031      6.20674        -0.249057     -0.083320     -0.011012
O	      8.39809      4.08116      6.08189         0.170525      0.197500     -0.022683
O	      2.25032      4.10969      4.26520        -0.054368      0.021655      0.002370
O	      4.17013      6.05229      4.11143        -0.023402      0.089044      0.034848
O	      4.30569      4.12434      6.02711        -0.049552      0.010271      0.007564
O	      6.27213      6.08288      6.26886        -0.102553      0.148469     -0.346939
O	      6.29322      4.21601      8.22039        -0.022181     -0.500723     -0.042458
O	      8.16805      6.18474      8.26245         0.817631      0.010218      0.069377
O	      4.11067      8.39666      6.14334         0.050153     -0.090644      0.068600
O	      4.35386      6.17325      8.34261        -0.352791     -0.097440      0.077155
O	      6.27920      8.13917      8.13623        -0.064222      0.548824     -0.043388
O	      6.32431      6.14643     10.41942        -0.089135      0.145058      0.012734
