# total energy = -209.58452734 eV
 
CRYSTAL
PRIMVEC
0.024991 6.276623 6.232613 
6.312857 0.009582 6.248074 
4.202116 4.188285 0.012765 
PRIMCOORD
36 1
Li	      6.32505      6.36270     12.37990        -0.024576      0.027764      0.013060
Li	      4.27863      0.12145      4.21738         0.116818      0.035068     -0.010532
Li	      6.19516      2.02795      4.20705        -0.059565     -0.148572      0.018420
Li	      6.25973      2.16891      8.30380         0.012242      0.017408      0.004536
Li	      2.22571      2.12957      4.25849         0.024306      0.130662     -0.007770
Li	      4.17226      4.07463      4.25029        -0.121259     -0.015678     -0.007192
Li	      4.27226      2.11967      6.07793         0.027354     -0.043839     -0.034942
Li	      2.18333      4.16202      6.17937         0.005037     -0.066928     -0.024172
Li	      8.49790      8.29374      8.34310         0.061611     -0.055883     -0.000167
Sc	      2.16171      4.22483      2.10251        -0.100176      0.090976      0.099824
V	      6.28735      4.10336      2.24459        -0.105856     -0.653655     -0.552370
Cr	      8.37261      2.09365      6.23806         0.188509      0.044742     -0.406529
Fe	      6.24093      4.15703      6.21745         0.126640      0.128766      0.455922
Co	      6.36563      6.31958      8.30813         0.010756     -0.147297      0.152695
Cu	      4.21512      2.08395      2.13883        -0.224877      0.042346     -0.193349
Cu	      4.20313      8.37488      4.21310         0.213338      0.096485     -0.302536
Cu	      2.11478      6.27858      4.18334         0.034355     -0.009932     -0.043237
Cu	      4.22532      6.24076      6.22292         0.093507     -0.032397     -0.006057
O	      4.14834      8.29979      6.29815        -0.297425      0.004421      0.318116
O	      6.41850      6.21247     10.34404        -0.179056      0.119087     -0.592713
O	      8.52184      8.30939     10.47838        -0.098619     -0.007759      0.310121
O	      2.11906      2.01579      2.00465        -0.446323     -0.553036      0.161899
O	      4.30295      4.12443      2.06684         0.823729      0.555723      0.072624
O	      4.20401      2.09646      4.05814        -0.074203     -0.001238      0.350303
O	      6.32340      4.21917      4.00088        -0.013536      0.036527     -0.119176
O	      6.37428      2.19197      6.20199         0.065072     -0.033809      0.004708
O	      8.34252      4.12983      6.25866        -0.045869     -0.115381     -0.086626
O	      2.03380      4.24917      4.17137         0.101529     -0.127669      0.104908
O	      4.13264      6.37271      4.27573        -0.015576     -0.046467     -0.255736
O	      4.29655      4.25092      6.22426         0.023243     -0.107368     -0.005215
O	      6.23777      6.20673      6.29724         0.394861     -0.002588      0.542275
O	      6.38358      4.21678      8.29531        -0.233790     -0.032357     -0.245352
O	      8.44105      6.28079      8.42814        -0.004538      0.112978     -0.323378
O	      2.14828      6.34130      6.33431        -0.252563      0.104962      0.337253
O	      4.10404      6.35974      8.25775        -0.806820     -0.429350      0.233667
O	      6.23701      8.49042      8.31571         0.781721      1.083290      0.036717
