# total energy = -213.77175558 eV
 
CRYSTAL
PRIMVEC
0.043772 6.250331 6.193938 
6.311838 0.058724 6.178788 
4.237456 4.186282 0.009816 
PRIMCOORD
36 1
Li	      8.50357      8.42251     12.29586         0.052538      0.013588     -0.006616
Li	      6.45936     10.38901      8.34741         0.002863      0.038138      0.016694
Li	      8.41673     10.33885     10.25786         0.020815      0.008907     -0.008575
Li	      6.45031      8.49972     10.24033        -0.010403     -0.030473     -0.011912
Li	      4.27182      4.18210      4.18845         0.005880      0.022659      0.008771
Li	      6.50804      8.33333      6.30060         0.010459     -0.013113      0.052770
Li	      4.18249      6.20958      6.25086        -0.054176     -0.024749     -0.001406
Li	      8.35071      8.44902      8.32789        -0.106477      0.006508     -0.045074
Li	      6.35275      6.34039      8.18869        -0.042637      0.067623      0.009693
Sc	      2.13657      2.13808      4.10782        -0.066001     -0.009128      0.010895
V	      0.16780      6.19192      6.12796        -0.021371     -0.078731     -0.112300
Cr	      4.38889      8.25541      8.30318         0.043392     -0.126378     -0.028399
Fe	      6.24285      4.21936      6.17464         0.121294     -0.037430      0.036666
Co	      8.45910      4.24217      8.21000        -0.006026      0.021358      0.015131
Co	      8.46276      6.28974      6.21601        -0.069980      0.027252     -0.001153
Cu	      4.23527      6.25529      2.09943         0.076474     -0.091087      0.041428
Ni	     10.50419      8.40558     10.24934         0.038967      0.081599      0.093336
Ni	      8.48453      6.36210     10.24942        -0.055499     -0.040767     -0.004756
O	      2.31506      2.23514      2.02648         0.162538      0.059499      0.013288
O	      4.10765      4.12523      1.95001        -0.082659      0.063589     -0.037740
O	      4.21040      2.14146      4.13071        -0.006239     -0.001552      0.020981
O	      6.34427      4.24951      4.24510        -0.002562      0.011200     -0.072124
O	      6.18318      2.02800      6.29782        -0.052338      0.040658     -0.147241
O	      8.52475      4.33194      6.27646        -0.065675      0.065883      0.058411
O	      2.05012      4.26114      3.99896         0.080630     -0.116816     -0.099854
O	      4.23727      6.29009      4.06640         0.103282     -0.118467      0.114642
O	      4.29862      4.06690      6.27599        -0.075498     -0.065461     -0.027888
O	      6.48663      6.24852      6.19830         0.064931      0.002606     -0.049353
O	      6.54262      4.16563      8.17057         0.139942     -0.052264     -0.030552
O	      8.38505      6.15353      8.14579        -0.167463     -0.119420     -0.120684
O	      1.92600      6.31513      6.22362         0.038994      0.018507      0.019552
O	      4.27862      8.53044      6.25293         0.017100      0.079441      0.069469
O	      4.21709      6.45995      8.20041         0.059969      0.059685      0.067865
O	      6.19031      8.42796      8.27600         0.003778      0.002050      0.004171
O	      6.31666      6.29862     10.51901        -0.000489      0.072660      0.105745
O	      8.51993      8.33814     10.28060        -0.158356      0.162426      0.046119
