# total energy = -211.68989951 eV
 
CRYSTAL
PRIMVEC
0.043489 6.131932 6.331469 
6.271882 0.035310 6.340218 
4.209311 4.122141 -0.005384 
PRIMCOORD
36 1
Li	     10.34606      4.24682      6.38924        -0.039174     -0.007897      0.149329
Li	      8.44639     10.24270     10.58163        -0.001260      0.023803      0.055851
Li	      8.24967      4.21978      8.57618         0.042579     -0.051022     -0.021794
Li	      2.16201      2.06984      4.12840        -0.006098      0.014381     -0.026526
Li	      4.20961      4.05475      4.12796        -0.007383      0.022558     -0.040955
Li	      6.36169      4.08258      6.47971        -0.004740      0.074208      0.114033
Li	      6.35785      4.22357     10.41193         0.007984      0.013814      0.006417
Li	      8.29346      6.18526     10.35466         0.037438     -0.028654     -0.023335
Li	      8.52110      8.21798      8.59716        -0.028302      0.015677      0.004659
Sc	      2.07750      4.11664      6.15735        -0.128497     -0.071809     -0.094175
V	      4.26322      6.02807      6.18387         0.131651      0.153243     -0.257804
Cr	      4.17800      2.10426      2.15745         0.092922     -0.251505     -0.013913
Fe	      8.28035      2.23288      6.28737         0.110212     -0.158382      0.155470
Co	      8.47988      6.08770      6.33674        -0.092692     -0.011666     -0.097519
Co	      6.32692      6.14806      8.47617         0.018383     -0.024833     -0.135816
Cu	      6.31550      4.09573      2.20259         0.110807     -0.072790     -0.035767
Cu	      6.33833      8.20167     10.54999         0.141195      0.051612      0.100690
Ni	     10.45839      6.24095      8.51271         0.084272     -0.088068      0.239650
O	      6.32429      6.30751     10.36282        -0.028599     -0.132161     -0.049433
O	      2.16114      1.96267      2.12061         0.050078      0.436375     -0.082176
O	      4.31821      4.08685      2.11968        -0.162239      0.078835      0.064452
O	      4.37191      2.05748      4.22836        -0.139110      0.024750      0.119358
O	      6.33350      3.97165      4.12144        -0.007075     -0.052580      0.091808
O	      6.32377      2.07896      6.54399         0.033289      0.064858     -0.067143
O	      8.39967      4.11421      6.33978        -0.075381      0.157856     -0.024529
O	      2.12756      4.10076      4.23764         0.006146      0.060112      0.059201
O	      4.24812      6.19844      4.41902         0.034466     -0.049962      0.282650
O	      4.19795      4.24708      6.31927         0.057450     -0.102449     -0.022800
O	      6.15837      6.14370      6.43175        -0.006156     -0.070962     -0.049399
O	      6.25703      4.20962      8.50860         0.022670      0.091852      0.005297
O	      8.29798      6.21526      8.27482        -0.107801      0.032800     -0.044033
O	      2.36845      6.18615      6.45295         0.005647      0.069011     -0.088188
O	      4.18468      8.12152      6.41415        -0.080931      0.053157     -0.039019
O	      4.33129      6.22558      8.30483        -0.078938     -0.062666     -0.064157
O	      6.21122      8.15733      8.29811         0.000771     -0.191579     -0.116632
O	      8.24935      8.18211     10.66562         0.006417     -0.009918     -0.053753
