# total energy = -135.95358124 eV
 
CRYSTAL
PRIMVEC
-0.000097 4.178855 -0.000116 
-4.178868 0.000097 -0.000149 
-2.089025 2.089162 11.878059 
PRIMCOORD
24 1
Li	     -3.13474      1.04392      4.97390         0.008220     -0.002685     -0.078680
Li	     -3.13643      5.22404      8.93090         0.003385      0.001137     -0.030593
Li	     -1.04430      3.13287      0.94098        -0.001796      0.004910      0.100500
Li	     -1.04227      3.13216      4.97402        -0.002835      0.000116     -0.078535
Li	     -5.22536      3.13451      8.93100         0.003887      0.001890     -0.031179
Li	     -3.13206      1.04357      0.94123        -0.007482      0.004633      0.098881
Mn	     -3.13286      3.13305      2.97148         0.000224     -0.000293      0.028574
Mn	     -3.13369      3.13390      6.92656         0.001628     -0.002596      0.037876
Mn	     -1.04359      1.04343      2.97591        -0.002424      0.004196      0.009640
Ni	     -3.13350      3.13472     10.88830        -0.000791     -0.001980     -0.012493
Ni	     -5.22353      5.22306      6.91260         0.001268     -0.001056     -0.019125
Ni	     -5.22333      5.22423     10.89615         0.000777     -0.003723      0.021611
O	     -3.13390      5.22309      6.91316        -0.003431      0.004102     -0.002341
O	     -3.13389      5.22417     10.88829         0.003377     -0.004679     -0.015985
O	     -1.04339      3.13293      2.98203        -0.002349      0.001399      0.010448
O	     -5.22311      3.13354      6.91336        -0.004154      0.003408     -0.004265
O	     -5.22284      3.13491     10.88818         0.000491     -0.006607     -0.013961
O	     -3.13296      1.04363      2.98182        -0.001103      0.001194      0.011225
O	     -3.13322      3.13334      4.93146         0.001487     -0.002121      0.068926
O	     -3.13442      3.13465      8.79076         0.001120     -0.003522     -0.106267
O	     -1.04377      1.04351      1.10539         0.000727      0.002481     -0.026195
O	     -1.04346      1.04389      4.86967         0.000821     -0.003824      0.044509
O	     -5.22466      5.22386      8.90162         0.002615      0.000328      0.022684
O	     -3.13280      3.13302      1.09667        -0.003664      0.003294     -0.035256
