# total energy = -211.64480119 eV
 
CRYSTAL
PRIMVEC
-0.051999 6.365503 6.054207 
6.311935 -0.073086 6.077163 
4.173673 4.224217 -0.014901 
PRIMCOORD
36 1
Li	      6.31095     -0.03811      6.07624         0.010630     -0.062131     -0.038085
Li	      2.06630      8.33811      5.98989         0.075948     -0.048258     -0.008397
Li	      4.24769      6.34450     10.13087         0.019704     -0.030225     -0.020120
Li	      4.15164      6.19140      2.09232        -0.037652      0.013262     -0.013017
Li	      2.18060      4.29108      2.03628        -0.052010      0.086484      0.011961
Li	      4.12986      4.18164      3.99920         0.001590     -0.047489      0.095677
Li	      2.01785      6.33890      4.17869        -0.035240      0.037545      0.019321
Li	      2.02400      4.36222      5.97730        -0.041304      0.151427      0.081590
Li	      3.99709      6.43675      5.99403        -0.087693      0.103438      0.061565
Sc	      6.38533      4.09961      5.96122         0.044171      0.087715      0.060806
V	      8.32027      8.45621      8.11869         0.102326     -0.080424     -0.147199
Cr	      6.27151      6.29241      8.07840        -0.439150     -0.093493      0.005966
Fe	      4.13714      2.22409      1.92868         0.231329     -0.225233     -0.283886
Co	      6.24850      8.35317     10.10239         0.182627     -0.187532     -0.214972
Co	      4.20151      8.47505      4.09753        -0.203880      0.157417      0.088506
Cu	      1.99756      0.05309      1.96932         0.247879     -0.019000      0.050902
Cu	      6.16811      6.44657      4.07442        -0.047684      0.324207     -0.000597
Cu	      4.24342      2.02575      6.05262        -0.138089      0.060421      0.040449
O	      1.85847      4.36158      4.04879         0.236692     -0.499054     -0.084444
O	      2.05271      6.37061      6.16494        -0.070981      0.030228     -0.062027
O	      2.19273      2.09182      2.21152        -0.288108      0.004252      0.007368
O	      4.18894      4.15724      2.05824        -0.037203      0.184164     -0.020267
O	      4.38848      2.00785      3.95251         0.011677      0.010658      0.273923
O	      6.29829      3.90732      3.92886         0.007506      0.108813      0.166271
O	      6.29434      2.04246      5.95314        -0.095998     -0.125189      0.075257
O	      8.36640      4.32818      6.09750        -0.077217     -0.587670      0.024146
O	      4.18508      6.59197      4.03659         0.076307      0.096359      0.078467
O	      4.20022      4.02505      6.20441         0.078882      0.493313      0.146017
O	      6.33241      6.23984      5.99841         0.153089      0.063892     -0.165507
O	      6.16809      4.26441      8.15878        -0.214494      0.067050      0.026127
O	      8.26249      6.41222      8.05977         0.296336      0.065150     -0.115679
O	      4.11377      8.49456      6.04703        -0.038624     -0.080810     -0.080999
O	      4.24499      6.19850      8.00313         0.071259     -0.052169      0.088389
O	      6.26825      8.30074      8.14403         0.044339     -0.119139      0.118718
O	      6.25343      6.27962     10.02823         0.070506      0.117203     -0.021779
O	      8.32584      8.38709      9.99556        -0.057466     -0.005180     -0.244451
