# total energy = -211.66436472 eV
 
CRYSTAL
PRIMVEC
-0.036177 6.375653 6.186513 
6.221409 -0.024471 6.175745 
4.132992 4.228606 -0.002050 
PRIMCOORD
36 1
Li	      4.25045      6.36559     10.40984        -0.036764      0.007959      0.041041
Li	      6.15980      1.97605      4.23700        -0.043899     -0.007279      0.042096
Li	      6.17013      2.12504      8.21445         0.020361     -0.044170     -0.028668
Li	      4.09798      4.22354      4.20091         0.006697     -0.012922      0.154060
Li	      4.05072      2.20005      6.09659         0.012823      0.109841     -0.039373
Li	      6.14673      4.32418      6.17705        -0.075954      0.010342     -0.042916
Li	     10.30550      8.50169     10.32603        -0.005247      0.015827      0.046819
Li	      4.26997      6.24920      6.10779        -0.072987     -0.087251     -0.015739
Li	      6.18441      6.28468      8.11727        -0.006542      0.030514     -0.007345
Sc	      2.14648      6.39207      4.16326        -0.151769      0.234688     -0.076093
V	      6.26460      4.17501      2.17193         0.300857      0.016085      0.033937
Cr	      4.13785      2.12073      2.09607         0.077934     -0.129344     -0.109448
Fe	      8.05102      4.34490      8.20402         0.173273     -0.182399      0.037917
Co	      8.24090      8.45500     12.33303         0.016818     -0.105890     -0.251919
Co	      4.19736      4.21946      8.22763         1.114181     -0.551185      0.306739
Ni	      6.20917     -0.00329      6.15934        -0.052613      0.005883     -0.037163
Ni	      6.14222      6.40016      4.19850         0.006048     -0.072519     -0.191474
Ni	      2.09286      4.14267      6.12765         0.046043      0.241865     -0.029502
O	      2.13593      1.97542      1.93500        -0.084413      0.133031      0.188193
O	      4.27979      4.14139      1.92831        -0.170188      0.072594      0.217219
O	      4.06843      2.11551      4.02380        -0.002388      0.017064      0.021660
O	      6.13900      4.28294      3.89555        -0.049803      0.013159      0.097821
O	      6.40622      1.92864      6.17741        -0.047580      0.040861      0.055111
O	      8.25666      3.99907      6.29041        -0.023544     -0.026471     -0.212293
O	      2.05893      4.23794      4.01028         0.071868      0.003439      0.075845
O	      4.14677      6.32152      4.11782         0.138404      0.032680     -0.060791
O	      4.09714      4.22809      6.36326        -0.288847      0.027100     -0.841557
O	      6.18565      6.41747      6.17074        -0.037651     -0.241394      0.037351
O	      6.18101      4.23527      8.20923        -0.573354      0.106101      0.136101
O	      8.24527      6.26225      8.25466        -0.022066      0.219065     -0.124908
O	      2.07452      6.46472      6.28515         0.073603      0.065181      0.034773
O	      4.03614      8.63220      6.24505        -0.052809     -0.092034      0.065416
O	      3.94037      6.43788      8.25696        -0.122763      0.083615     -0.044209
O	      6.15805      8.67367      8.20045        -0.177705      0.193059      0.126822
O	      6.22581      6.35680     10.46153         0.021990     -0.002096     -0.169937
O	      8.25369      8.46117     10.25785         0.017986     -0.125003      0.564413
