# total energy = -206.65111066 eV
 
CRYSTAL
PRIMVEC
0.025097 6.235818 6.366052 
6.157468 0.044704 6.346375 
4.128322 4.167374 0.006650 
PRIMCOORD
36 1
Li	      8.16692      2.17637      6.32912        -0.036745     -0.003845     -0.016174
Li	      6.18138      4.17052      2.24852         0.019707     -0.001408      0.002267
Li	      6.19541      2.19846      4.23440         0.040971     -0.040857      0.046911
Li	      6.21821      2.22232      8.42294         0.071465      0.052928     -0.051910
Li	      8.14039      4.24405      8.46340         0.051248      0.032896     -0.048682
Li	      6.20151      6.19609      4.25536        -0.025556      0.001775      0.039571
Li	      6.21583      4.16592      6.34912         0.003754      0.011858     -0.020260
Li	      2.09755      4.12976      6.34057         0.000492     -0.010766      0.003585
Li	      8.28000      8.29301      8.54479        -0.030111      0.032600     -0.009965
Sc	      4.18130      6.21579      6.36914        -0.017824      0.002766      0.017468
V	      4.04476      2.18565      2.23012        -0.102606     -0.067438     -0.145626
Cr	      6.17442      0.09498      6.33718        -0.012029      0.127610      0.084199
Fe	      8.22125      6.31956     10.49908        -0.053243      0.142214      0.043947
Cu	      4.18381      4.20740      4.29109        -0.057429     -0.035789     -0.083044
Ni	      8.14986      4.11004      4.26243        -0.011571      0.004849      0.008341
Ni	      8.20883      6.29198      6.40942         0.016150      0.003745      0.015329
Ni	      6.21295      4.19585     10.51651         0.108218     -0.117630      0.099033
Ni	      6.16887      6.25765      8.44100        -0.052005      0.044330     -0.002809
O	      2.28049      2.05938      2.10351         0.106017     -0.011735      0.025909
O	      4.18385      4.01705      2.04815         0.008950     -0.045440     -0.031479
O	      4.09638      2.11440      4.09275         0.012068      0.030317      0.013448
O	      6.15358      4.15948      4.22870        -0.080918     -0.004605     -0.009606
O	      6.13091      1.93626      6.42598         0.117822     -0.153573     -0.014036
O	      8.37736      4.22061      6.29494         0.087582     -0.081941      0.120777
O	      2.12209      4.30478      4.20380         0.289742     -0.256663      0.059703
O	      4.10789      6.26919      4.23109         0.081298      0.037469     -0.018830
O	      4.13120      4.16270      6.27434        -0.011297      0.103451      0.092544
O	      6.18493      6.26353      6.38818        -0.160135      0.008771     -0.154752
O	      6.17447      4.35467      8.51170        -0.016270      0.007291     -0.612876
O	      8.10588      6.31619      8.50059        -0.017505     -0.007783     -0.034313
O	      1.98106      6.23782      6.27581        -0.012436     -0.035152      0.081677
O	      4.13500      8.40313      6.48042         0.009973      0.069019      0.382734
O	      4.17674      6.36340      8.50225        -0.020395      0.003832     -0.081746
O	      5.99838      8.17469      8.48376        -0.017555      0.075562      0.013055
O	      6.17706      6.24176     10.70421        -0.000007      0.027283      0.102925
O	      8.29672      8.29804     10.59331        -0.289820      0.054058      0.082684
