# total energy = -208.27817791 eV
 
CRYSTAL
PRIMVEC
-0.012267 6.200463 6.344838 
6.218308 -0.015146 6.348100 
4.144599 4.134656 -0.009294 
PRIMCOORD
36 1
Li	      4.14144     10.31344      6.34210        -0.065650     -0.014963      0.116439
Li	      6.08493      4.14653      2.15117         0.027250     -0.020907     -0.066941
Li	      4.19879      8.29328      8.41838        -0.028153      0.038816     -0.090646
Li	      4.09746      4.19410      4.23409        -0.070828      0.062746      0.008875
Li	      4.14611      2.08335      6.35543         0.000368     -0.021549      0.060568
Li	      4.18574      8.25714      4.27052         0.001164     -0.030157      0.031845
Li	      8.25107      6.19208     10.55184         0.111872     -0.053553      0.010796
Li	      2.07386      4.10092      6.23212         0.005549     -0.012442     -0.067420
Li	      8.29897      8.20507      8.46563         0.009264      0.012309     -0.043691
Sc	      2.15064      4.15414      2.18310         0.103615      0.030872     -0.170922
V	      3.99439      6.22291      6.40900         0.065857     -0.054741     -0.105587
Cr	      6.16234      8.24985     10.48413         0.003574      0.072447     -0.028151
Fe	      6.20759      4.11923      6.37235        -0.122871      0.136905      0.165205
Cu	      4.15298      6.17256     10.57677         0.019419      0.001718      0.071029
Cu	      2.05736      2.08905      4.23367        -0.024505      0.082500     -0.025757
Ni	      2.05620      2.05681      0.00686         0.068114     -0.055912      0.197494
Ni	      4.11618      6.19396      2.14467        -0.125029      0.031127      0.046568
Ni	      6.25081      6.20830      8.45511         0.054563     -0.071562     -0.196340
O	      6.10581      6.26971     10.52038        -0.189168     -0.047982      0.132116
O	      1.99250      2.04029      2.16238         0.233039     -0.050774     -0.014325
O	      4.15762      4.20680      2.07533         0.005230     -0.308462      0.065092
O	      4.24492      1.92934      4.23666         0.065556     -0.204711     -0.030192
O	      6.34620      4.11333      4.26051         0.162385     -0.089733     -0.053420
O	      6.20465      2.12511      6.22773        -0.131681     -0.233688     -0.229102
O	      8.19480      4.05745      6.43927         0.233461      0.162302     -0.004376
O	      2.09246      4.03473      4.23539        -0.034309      0.103184      0.085463
O	      4.23434      6.20263      4.32637        -0.041951      0.021953      0.110707
O	      4.21171      4.32189      6.29708        -0.112340     -0.067955     -0.083531
O	      6.16030      6.15811      6.29080         0.036685      0.096535     -0.008112
O	      6.19083      4.11408      8.40117         0.000755      0.058249     -0.000856
O	      8.29657      6.20181      8.49886        -0.086309      0.056027      0.061592
O	      2.21057      6.18160      6.28847        -0.120272     -0.090933     -0.058400
O	      4.11650      8.07498      6.31779         0.107035      0.080815     -0.050795
O	      4.22774      6.19567      8.19025        -0.166867     -0.010454      0.050686
O	      6.22030      8.22801      8.65252         0.012259      0.253346      0.253052
O	      8.10025      8.34932     10.64166        -0.007080      0.138625     -0.138964
