# total energy = -208.30679023 eV
 
CRYSTAL
PRIMVEC
0.017644 6.229157 6.307280 
6.278456 0.000082 6.325304 
4.160065 4.139101 0.025599 
PRIMCOORD
36 1
Li	      6.23654      0.05432      6.25810         0.017736     -0.011075     -0.029198
Li	      2.14463      6.22368      8.36919         0.002267     -0.041803     -0.009371
Li	      6.34611      8.25449     10.60684         0.017598      0.008165      0.040188
Li	      8.36210      4.12327      8.39430        -0.022044      0.024203      0.015903
Li	      4.26052      1.99808      6.30806         0.004528     -0.015225      0.000841
Li	      6.35423      4.06617      6.36168         0.003924     -0.001295      0.011533
Li	     10.40456      8.30941     10.56180         0.029116     -0.005894     -0.029798
Li	      4.14545      6.26292      6.33013        -0.003933     -0.014315     -0.015401
Li	      8.36922      8.29407      8.47925        -0.023024      0.022180     -0.008056
Sc	      6.31294      6.12727      8.38570         0.020210      0.023606     -0.167426
V	      4.32649      4.15056      4.27694         0.102139      0.015853      0.229950
Cr	      4.13321      2.08118      2.12164         0.099705     -0.007877     -0.028050
Fe	      2.02687      4.21306      6.29357         0.048584     -0.052424      0.057739
Cu	      2.06438      2.06356      0.03165         0.048544     -0.108123      0.018065
Cu	      8.46531     10.27541     10.59889        -0.075764      0.015306     -0.115921
Cu	      6.24518      2.13410      8.37527        -0.068127     -0.058924      0.017815
Ni	      2.07035      2.13787      4.22744        -0.024275     -0.033828      0.048092
Ni	      8.34237      6.24950     10.53373         0.021874     -0.070927      0.012327
O	      2.10521      6.18658      6.22077        -0.012522      0.228849      0.133688
O	      8.36102      8.25320     10.68297         0.037797      0.149945     -0.141618
O	      2.08881      2.06671      2.10056         0.091578      0.006405      0.037768
O	      4.13086      4.11810      2.33646        -0.013315     -0.016615      0.007087
O	      4.14010      2.24222      4.14662         0.111977     -0.028235      0.021311
O	      6.11510      4.17540      4.25630        -0.079447     -0.086043     -0.009283
O	      6.34686      2.05319      6.46158        -0.032538     -0.027528     -0.159441
O	      8.36154      4.07088      6.18849         0.021184      0.065679      0.148259
O	      2.17434      4.18309      4.30222         0.027037      0.002575     -0.189045
O	      4.17112      6.07062      4.11080        -0.033502      0.002357      0.088014
O	      4.12183      4.17064      6.08928         0.056458      0.034234     -0.137966
O	      6.25721      6.33627      6.30207        -0.030264     -0.148928      0.109514
O	      6.26527      4.10022      8.42400         0.024479      0.125561     -0.013013
O	      8.41733      6.25074      8.50979        -0.116253     -0.030185     -0.105992
O	      4.16260      8.28872      6.43569        -0.090805      0.029965      0.013980
O	      4.20989      6.29714      8.58286        -0.040415      0.015221     -0.083219
O	      6.18212      8.29831      8.30952        -0.016113      0.001968      0.182730
O	      6.30612      6.24066     10.48531        -0.104395     -0.012827      0.047996
