# total energy = -207.15130158 eV
 
CRYSTAL
PRIMVEC
-0.038255 6.409357 6.182686 
6.274414 -0.012917 6.157822 
4.173853 4.247049 0.000127 
PRIMCOORD
36 1
Li	      4.16478      8.44925      8.26620         0.107818     -0.180097      0.008931
Li	      4.18944      6.40515     10.19747         0.036049     -0.000368     -0.099256
Li	      2.02664      2.19566      4.06836        -0.078985      0.069240      0.050442
Li	      4.15288      4.23542      4.07687        -0.009531     -0.012318     -0.016361
Li	      4.17452      8.45944      4.17716         0.050188     -0.092239      0.075949
Li	      6.15357      8.48900      6.17232        -0.103599      0.008854      0.057351
Li	      4.18533      6.45354      6.18880         0.000764      0.128821      0.073639
Li	      4.12084      4.38571      8.26781        -0.081602      0.206738      0.024497
Li	      6.14109      6.41238      8.26710        -0.178597      0.062991      0.045289
Sc	      2.14050      6.38809      4.10509         0.020329     -0.043268      0.196765
V	      6.13613      4.39580      6.11694        -0.038861      0.189265     -0.093338
Cr	      4.18686      2.12991      6.13587        -0.193809     -0.004760     -0.272521
Fe	      2.11070      4.17031      2.12615         0.034394      0.016600     -0.063321
Cu	      4.14973     10.55666      6.18159        -0.028186     -0.265898     -0.423846
Cu	      2.15343      8.51504      6.16620         0.221531     -0.256770     -0.148782
Cu	      2.13797      6.33489      8.24002         0.096837      0.039928      0.001695
Cu	      6.21132      8.50085     10.26395        -0.004237      0.059440     -0.365768
Ni	      4.19733      6.35272      2.10051        -0.132248      0.095357      0.013886
O	      4.11328      8.59988      6.16553        -0.300968      0.110799     -0.003199
O	      4.05399      6.39158      8.18865         0.133450      0.027744      0.050973
O	      6.24767      8.61294      8.31282         0.000769     -0.197909     -0.043416
O	      2.05754      2.13776      1.96565         0.094533      0.122200     -0.096439
O	      4.15240      4.29008      1.95665        -0.038134      0.000691      0.182062
O	      4.25693      2.14823      4.18840        -0.049176      0.042110      0.369824
O	      6.28159      4.18843      4.26528         0.026451     -0.043271      0.269098
O	      6.21159      2.26407      6.13443         0.143213      0.096110      0.195256
O	      8.25717      4.37093      6.21448        -0.039902      0.130509      0.024829
O	      2.06406      4.28666      4.03860         0.005796     -0.045620     -0.051238
O	      4.14091      6.39851      4.13335         0.030451     -0.010595     -0.085862
O	      4.35562      4.19047      6.18144        -0.009171     -0.068479     -0.000739
O	      6.30806      6.20587      6.15151         0.099537     -0.041890     -0.016904
O	      6.32265      4.19879      8.00343         0.056633     -0.089365     -0.006337
O	      8.35428      6.29985      8.17886         0.034029     -0.064671     -0.142411
O	      1.94975      6.34274      6.27214        -0.026435     -0.131113     -0.075844
O	      6.24004      6.48182     10.36379        -0.043044      0.104980      0.235016
O	      8.25471      8.48768     10.37257         0.163711      0.036256      0.130082
