# total energy = -206.95866845 eV
 
CRYSTAL
PRIMVEC
0.076360 6.169335 6.136736 
6.647168 0.040570 6.171666 
4.455052 4.160596 0.002590 
PRIMCOORD
36 1
Li	      4.60262     10.14054      6.20922         0.126357      0.006670     -0.022917
Li	      2.41599      8.24643      6.23491         0.010611     -0.010016      0.017622
Li	      2.25633      6.20809      8.10060        -0.058962      0.012876      0.022488
Li	      4.37328      2.18815      2.05988         0.005012      0.037150     -0.041722
Li	      2.35952      4.06696      2.10888         0.044426     -0.010485     -0.004159
Li	      2.15640      2.24827      4.04481        -0.091686     -0.039093      0.005406
Li	      4.31949      4.08422      4.05464         0.028768     -0.002166     -0.019240
Li	      0.21515      4.06426      4.16665         0.065908      0.080718      0.024695
Li	      6.55794      8.31070      6.09964        -0.056695     -0.029028      0.072166
Sc	      2.30154      6.09642      4.10386        -0.017822     -0.035408     -0.036422
V	      6.76613      4.18309      6.05038        -0.067603     -0.051203      0.039866
Cr	      0.19193      1.95993      2.08085         0.052902     -0.066271     -0.021584
Fe	      4.37932      6.33159      6.17229         0.095159     -0.021130      0.028993
Cu	      4.53278      6.21305     10.19007        -0.038597     -0.194957     -0.059644
Cu	      6.73451      8.24420     10.22580        -0.085445      0.057757      0.159423
Cu	      4.50514      2.12720      6.12688         0.011459     -0.040503     -0.049190
Cu	      4.46631      4.14727      8.18187        -0.049417     -0.045796      0.110462
Cu	      6.64865      6.18732      8.23209         0.115862      0.065384     -0.010119
O	      4.49141      8.20744      6.20879        -0.022116      0.106456     -0.013966
O	      4.36483      6.11355      8.20332        -0.017109      0.287217     -0.086806
O	      6.87234      8.14889      8.25322        -0.232389     -0.213593     -0.127509
O	      6.82465      6.28137     10.19510         0.155404     -0.202546      0.055312
O	      1.99672      2.11038      2.09465        -0.068149      0.004456     -0.006506
O	      4.46098      4.32171      2.00782        -0.038623      0.003612     -0.010563
O	      4.62601      1.99425      4.15503        -0.056380     -0.066103      0.058268
O	      6.52509      4.10015      4.29347        -0.058828      0.095106     -0.051343
O	      6.83715      2.29935      6.20488         0.028900     -0.060179      0.098690
O	      8.62806      4.32418      6.13395         0.009598      0.032804     -0.024175
O	      2.25019      4.14708      4.09538         0.054901      0.034256      0.012557
O	      4.43497      6.21462      4.07969         0.013338      0.028786     -0.038586
O	      4.69065      4.11014      6.21013        -0.037351      0.031622     -0.023104
O	      6.50823      6.03837      6.24637        -0.148905      0.115592     -0.028495
O	      6.58148      4.12170      8.10424         0.168439      0.011555     -0.047678
O	      9.20691      6.32697      8.12266         0.177699     -0.130241     -0.050801
O	      2.42531      6.17425      6.12221        -0.027547      0.013078      0.046862
O	      8.77998      8.40240     10.17562         0.008881      0.193624      0.021718
