# total energy = -206.70850210 eV
 
CRYSTAL
PRIMVEC
0.011627 6.039781 6.335208 
6.274060 -0.033949 6.381164 
4.193854 4.068512 -0.033848 
PRIMCOORD
36 1
Li	      0.10703      6.02679      6.37936         0.002541      0.059581      0.030186
Li	      2.18015      7.98433      6.18653         0.020777      0.075054      0.039396
Li	      4.19089      8.06805      8.33438        -0.042137      0.004917     -0.036304
Li	      6.36754      2.04483      4.29368        -0.036005     -0.008185      0.031764
Li	      0.05419      1.97141      2.07201        -0.012618      0.002210     -0.095237
Li	      4.21350      4.01255      4.19615        -0.003181     -0.018988     -0.055411
Li	      4.12434      8.07834      4.31069         0.046918      0.015224      0.035208
Li	      2.02118      4.06673      6.27762        -0.041483     -0.015290     -0.008595
Li	      8.44079      8.04441      8.54373         0.048484      0.043884      0.036834
Sc	      2.21442      4.00004      2.05072        -0.020279     -0.073868      0.090195
V	      6.19486      6.14230      8.57807         0.119807     -0.189404      0.112361
Cr	      4.21678      2.10404      6.35514         0.148944     -0.009110     -0.032583
Fe	      6.23385      6.10224      4.18475         0.010576      0.060822     -0.009767
Ni	      6.20265     10.05499      8.36903         0.034302     -0.040093      0.060592
Ni	      2.17118      6.10681      4.27923        -0.002563     -0.194494     -0.110352
Ni	      8.36120      3.98056      4.28631         0.032040      0.108858     -0.108468
Ni	      6.26132      4.01347      6.31857         0.028302     -0.068801     -0.010312
Ni	      4.15350      6.05626      6.33595         0.027284     -0.110487      0.003200
O	      4.17274      7.95965      6.34539         0.052706      0.118998     -0.018091
O	      2.05324      1.97164      2.23769         0.035588      0.043867     -0.180267
O	      4.20399      4.00876      2.04366        -0.037891      0.056005      0.019936
O	      4.03231      1.95771      4.41376         0.262934      0.106905      0.014341
O	      6.32268      4.13493      4.20060        -0.028778     -0.346070      0.021159
O	      6.05763      2.00483      6.35876        -0.072597     -0.114247     -0.008929
O	      8.33147      4.16344      6.32606         0.073843      0.033756      0.035777
O	      2.10744      3.98831      4.16893        -0.013940      0.277887     -0.021298
O	      4.27829      6.07164      4.33971        -0.269868     -0.018984     -0.112673
O	      4.20407      3.98621      6.34591        -0.075535     -0.067326      0.059434
O	      6.36503      6.07123      6.39593         0.063539      0.107476      0.091469
O	      6.33677      4.22114      8.34031        -0.088377      0.028436      0.177330
O	      8.26237      6.08299      8.42214        -0.045145      0.011057     -0.115648
O	      2.17555      6.01782      6.32716        -0.197558      0.009492      0.040847
O	      4.35623      6.01974      8.44548        -0.107480      0.032168      0.043589
O	      6.26954      7.92237      8.43660         0.069193      0.077159      0.015578
O	      6.31548      6.02589     10.37918        -0.039927      0.007118     -0.010843
O	      8.36397      8.04765     10.58105         0.057583     -0.005523     -0.024420
