# total energy = -202.50172281 eV
 
CRYSTAL
PRIMVEC
0.008094 6.045568 6.354117 
6.231161 0.005186 6.357455 
4.176253 4.055237 -0.019134 
PRIMCOORD
36 1
Li	      2.18926      8.06319      6.35939        -0.082284      0.007602     -0.028741
Li	      4.08127      2.05817      2.02212         0.025983      0.003948     -0.031517
Li	      4.23685      0.09445      4.31173         0.013227     -0.089432      0.007830
Li	      6.10535      1.95805      4.33240         0.038500      0.054013     -0.027417
Li	      8.25372      4.07728      8.40097        -0.009136     -0.003461      0.038335
Li	      4.14575      3.99450      4.33011        -0.019525      0.037993     -0.008010
Li	      4.17614      8.11404      4.30048        -0.039479     -0.015390     -0.037867
Li	      6.17544      8.09495      6.33474        -0.006512     -0.007828      0.018674
Li	      4.19469      4.02995      8.38003        -0.022462      0.033410      0.020868
Sc	      6.22409      2.08811      8.50964         0.026047      0.003490      0.033721
V	      6.32301      3.92644      2.34628         0.046725      0.013841     -0.109709
Cr	      8.24355      6.06459     10.62615         0.030464      0.261649     -0.047883
Ni	      4.16929     10.05205      6.31468        -0.012262      0.004664     -0.010263
Ni	      2.11380      2.14809      4.25849        -0.067722      0.021253     -0.042334
Ni	      4.13597      2.04992      6.28819        -0.006026      0.028514      0.259595
Ni	      6.28352      4.03258      6.35944         0.079442     -0.082039     -0.080260
Ni	      4.14126      6.07090      6.29313        -0.046848      0.016055      0.051359
Ni	      6.23403      6.08632      8.46295        -0.104376      0.003171      0.047357
O	      2.07777      1.88057      2.19039         0.020831      0.004155     -0.055042
O	      4.45229      4.03580      1.99932        -0.070545     -0.067124      0.155233
O	      4.08146      2.04653      4.36112         0.190966      0.010019     -0.084623
O	      6.31155      4.01483      4.09780         0.019723     -0.057315      0.112952
O	      6.19132      1.98522      6.38044         0.151964     -0.005001     -0.014618
O	      8.33761      4.17279      6.31743         0.029765     -0.192382      0.044149
O	      2.12900      4.24779      4.17978        -0.027241      0.020609     -0.066604
O	      4.15056      6.05347      4.23584        -0.097550     -0.012390     -0.083149
O	      4.28718      3.97287      6.32131        -0.161175      0.146956     -0.023364
O	      6.19982      6.04931      6.34461         0.049266      0.099816     -0.027306
O	      6.24153      4.08662      8.41265         0.030463     -0.037059      0.052579
O	      8.30052      6.06610      8.53785         0.062745     -0.003947     -0.021719
O	      2.07182      6.02354      6.19518        -0.049932     -0.000976     -0.096159
O	      4.15016      8.10278      6.31817         0.015812     -0.074227     -0.006730
O	      3.98392      6.05533      8.36838         0.008884     -0.023737      0.139018
O	      6.27369      8.19467      8.47750        -0.010567      0.053847      0.012590
O	      6.35715      6.04647     10.57674        -0.017014      0.008694     -0.005843
O	      8.35856      7.79635     10.57390         0.009851     -0.161389     -0.085101
