# total energy = -224.73422117 eV
 
CRYSTAL
PRIMVEC
0.002890 6.239216 6.270472 
6.304223 0.018918 6.253991 
4.222125 4.167376 -0.006403 
PRIMCOORD
36 1
Li	     10.42603      4.26681      6.28007         0.017220     -0.017547      0.024951
Li	      8.37418      2.15371      6.25634        -0.150350      0.106939      0.014411
Li	      4.18656      2.13963      2.11844         0.015585     -0.020065      0.008115
Li	      8.45886     10.27472     10.52958        -0.047880     -0.101787      0.132329
Li	      6.28559      2.13381      4.25463        -0.006452      0.042849      0.119751
Li	      6.36897      2.04321      8.20545         0.104122      0.071085     -0.098453
Li	      8.44040      4.18122      8.21002        -0.055552     -0.042629     -0.081406
Li	      4.32907      2.01842      6.21382         0.094315     -0.024691      0.012212
Li	      8.44137      8.35890      8.49680         0.004936      0.006371     -0.012795
Sc	      2.18925      2.05076      4.07686        -0.027444      0.012208      0.043848
Mn	      4.26550      4.15161      4.08894        -0.021849      0.120005      0.015276
V	      4.16453      6.29774      6.33132        -0.038728     -0.112479     -0.071149
V	      6.41999      6.22708      8.40428        -0.088349     -0.010639     -0.056503
V	      6.29122      8.35503      6.29105         0.143279     -0.075257      0.093231
Co	      6.34088     10.39792      8.37127         0.025457      0.036478     -0.005302
Co	      6.44895      4.05939      6.31402        -0.086556      0.095872     -0.070953
Co	     10.47610      8.33942     10.39401         0.009127      0.019710     -0.038457
Ni	      8.35887      6.33337     10.44955         0.019737     -0.114464      0.080092
O	      2.13195      1.91724      2.09912         0.050878     -0.024407      0.005717
O	      4.38750      4.17017      2.18777        -0.061926      0.017750     -0.039494
O	      4.17807      2.25313      4.17109         0.105209     -0.022890      0.008719
O	      6.39249      4.17459      4.10248         0.020599     -0.053706     -0.015356
O	      6.30898      2.26068      6.27009        -0.135747     -0.025960     -0.034077
O	      8.26995      4.16876      6.28626         0.019704      0.167216     -0.010747
O	      1.97921      4.20630      4.20729        -0.026544     -0.068716     -0.003846
O	      4.18863      6.26470      4.22068         0.061880     -0.069015     -0.014391
O	      4.14217      4.27730      6.08783         0.106149     -0.048615     -0.074624
O	      6.26699      6.19751      6.34234        -0.034823     -0.075575     -0.001559
O	      6.26780      4.30264      8.38165        -0.018559     -0.071816      0.038269
O	      8.19373      6.28875      8.36497         0.038004     -0.022719     -0.063046
O	      2.10904      6.20506      6.40404        -0.027176      0.096917      0.036802
O	      4.30116      8.29015      6.10199         0.027546     -0.061687      0.004616
O	      4.19530      6.26165      8.25545        -0.008772     -0.008517      0.104804
O	      6.30889      8.31323      8.25175         0.000662      0.070258     -0.073414
O	      6.28045      6.12257     10.34025        -0.084351      0.049586      0.031426
O	      8.60063      8.27056     10.44543         0.056649      0.159937     -0.008996
