# total energy = -135.96580953 eV
 
CRYSTAL
PRIMVEC
0.000003 4.182132 0.000024 
0.000389 0.000083 11.884925 
4.182154 0.000003 0.000112 
PRIMCOORD
24 1
Li	      1.04793      1.04746      0.94263        -0.003233     -0.005063      0.095031
Li	      1.04645      1.04643      4.97776         0.001479     -0.001332     -0.075117
Li	      1.04567      1.04774      8.93682         0.002320     -0.002629     -0.021008
Li	      3.13818      3.13603      0.94321        -0.000951      0.004024      0.092714
Li	      3.13640      3.13736      4.97810         0.004690     -0.002247     -0.076100
Li	      3.13773      3.13662      8.93748        -0.000867      0.003131     -0.022864
Mn	      1.04767      3.13698      2.96927        -0.004024     -0.001659      0.041171
Mn	      3.13834      1.04538      2.98027         0.004230      0.003187      0.001592
Mn	      3.13779      1.04599      6.93055        -0.000581      0.000593      0.049888
Ni	      1.04663      3.13742      6.92101         0.000284     -0.000418     -0.027737
Ni	      1.04668      3.13823     10.91067         0.001305     -0.000877      0.008612
Ni	      3.13782      1.04641     10.88800         0.000953      0.001142      0.015132
O	      1.04779      1.04558      2.98376        -0.002826      0.002111      0.000581
O	      1.04663      1.04620      6.91771        -0.000135      0.001025      0.017838
O	      1.04673      1.04742     10.89708         0.000445     -0.005088     -0.026236
O	      3.13853      3.13651      2.98401         0.001193      0.000903     -0.000949
O	      3.13781      3.13703      6.91808        -0.001024      0.000794      0.016177
O	      3.13779      3.13759     10.89748         0.000091     -0.000509     -0.027826
O	      1.04764      3.13713      1.07579        -0.002239     -0.000521      0.015150
O	      1.04724      3.13681      4.85892        -0.001682      0.000579     -0.046435
O	      1.04574      3.13800      8.92712         0.002449      0.000019      0.041698
O	      3.13882      1.04579      1.11854        -0.002736      0.000191      0.010522
O	      3.13818      1.04543      4.94630        -0.001258      0.002080      0.057450
O	      3.13710      1.04638      8.79652         0.002118      0.000564     -0.139285
