# total energy = -229.46113112 eV
 
CRYSTAL
PRIMVEC
0.007277 6.279757 6.304651 
6.236655 0.003555 6.308249 
4.175254 4.206315 -0.015064 
PRIMCOORD
36 1
Li	      0.07342      6.26274      6.30164         0.044740     -0.068883     -0.005998
Li	      2.11551      8.31940      6.30510         0.002479      0.038468     -0.032585
Li	      4.22207      8.34374      8.30615         0.017217      0.023863     -0.001556
Li	      6.29200      8.30512     10.45625         0.012444     -0.010789     -0.023638
Li	      8.29501      4.17175      8.38178        -0.036230     -0.058669      0.028310
Li	      8.25770      6.30897     10.58021        -0.031431      0.014151      0.064694
Li	      6.22254      8.47991      6.39310        -0.061678      0.007236     -0.016813
Li	      4.09594      6.34518      6.34000         0.032812      0.020558     -0.005377
Li	      6.24166      6.33990      8.42808        -0.001292     -0.007957     -0.058876
Sc	      4.09781      4.21847      4.22231         0.048873     -0.041455     -0.015846
Mn	      2.11290      6.25598      8.33427         0.027979      0.047094      0.108048
V	     10.38873      6.30493      8.38016         0.156992      0.088396     -0.002493
V	      8.33828      6.22497      6.29769        -0.236858     -0.017444      0.002314
V	      4.16630      8.46555      4.31119         0.087141     -0.036088      0.135624
Co	      4.18130      6.29615     10.48728        -0.009748     -0.015942     -0.012362
Co	      2.08162      2.13935      4.20197        -0.040085     -0.231978     -0.228328
Co	      6.29388      4.19975      6.32329         0.004974     -0.077980     -0.124786
Co	      8.27878      8.38903      8.39048         0.103903      0.040401     -0.009284
O	      2.01080      1.97752      2.10693        -0.049154      0.046792      0.243084
O	      4.29103      4.24062      2.12383         0.000797     -0.010762     -0.005662
O	      4.19793      2.03626      4.28660        -0.027572     -0.068904     -0.001699
O	      6.32385      4.25481      4.12781         0.125457      0.466915     -0.115507
O	      6.08793      2.11652      6.31307         0.183358      0.456672     -0.010068
O	      8.34781      4.26412      6.13941        -0.465244     -0.005120     -0.037547
O	      2.04197      4.19206      4.16458        -0.041431     -0.313310      0.034237
O	      4.11840      6.33715      4.17503        -0.007351     -0.053728     -0.057643
O	      4.21862      4.10257      6.29052         0.447649     -0.025104      0.124675
O	      6.44648      6.27836      6.30391        -0.097858     -0.345164     -0.067624
O	      6.25376      4.08262      8.50518        -0.061482     -0.012776      0.123970
O	      8.39033      6.22894      8.28318        -0.010679      0.014685     -0.023791
O	      2.11249      6.30119      6.48805        -0.031880     -0.020071     -0.004408
O	      4.20486      8.35662      6.07758        -0.031291      0.052574     -0.049029
O	      4.04518      6.31165      8.52562         0.000437     -0.010986      0.035290
O	      6.25462      8.55773      8.39706         0.028792      0.034108      0.005954
O	      6.13021      6.18200     10.45435        -0.051673      0.060530      0.005920
O	      8.42307      8.56410     10.46383        -0.033110      0.020665     -0.001200
