# total energy = -226.12314739 eV
 
CRYSTAL
PRIMVEC
0.021306 6.090233 6.515140 
6.293380 -0.020581 6.557553 
4.173798 4.066115 0.007845 
PRIMCOORD
36 1
Li	      2.10607      0.02346      2.22011        -0.006241     -0.009945     -0.019398
Li	      8.35996      4.05256      4.48214         0.000053      0.049495      0.034984
Li	      6.29145      2.06703      8.77278         0.018562     -0.031059      0.008080
Li	      8.31295      4.02595      8.66924        -0.009076     -0.004345     -0.014085
Li	      4.19455      4.07082      4.33643        -0.022102     -0.007388     -0.019055
Li	      8.30182      6.09268      6.64603        -0.004943      0.016810      0.031795
Li	      6.36183      4.04777      6.62102        -0.016428     -0.013126      0.008698
Li	      6.26677      4.01712     10.70910         0.014810      0.005184      0.001913
Li	      2.18084      3.99120      6.49594        -0.004462      0.010982     -0.026676
Sc	      6.27832      6.05504     12.99507         0.118841     -0.013734     -0.008777
Mn	      4.24897      4.03524      8.70585        -0.044693      0.003597     -0.083839
V	      4.12995      2.08010      2.25235         0.018728     -0.066240      0.006372
V	      6.29520      2.15173      4.38193        -0.064283     -0.029502      0.028762
V	      6.26373      6.10777      4.42917         0.015832     -0.043522     -0.045207
Fe	      4.18691      6.01344      6.49382        -0.046405      0.109872     -0.033475
Co	      2.15579      6.02896      4.29543        -0.069274      0.130706     -0.035428
Cu	      8.34296      2.05109      6.57041        -0.010559     -0.079123     -0.023581
Ni	      6.32728      6.04568      8.70585         0.045259      0.043768     -0.009470
O	      2.21997      1.98470      2.40171        -0.042492      0.014342      0.103551
O	      4.23543      3.87929      2.10443        -0.034707      0.143673     -0.008717
O	      4.17179      2.02511      4.21234        -0.040382     -0.013654      0.007092
O	      6.27170      4.14418      4.37654         0.030709      0.076679     -0.007593
O	      6.35797      2.02451      6.36093        -0.086270      0.062431     -0.011055
O	      8.42180      4.00513      6.59102        -0.040106      0.129701     -0.013675
O	      2.10460      3.87613      4.36718         0.026071      0.464969      0.003185
O	      4.25309      6.05421      4.46381        -0.232737     -0.027906     -0.005629
O	      4.14506      4.08370      6.77855        -0.005736     -0.133038      0.027668
O	      6.20586      6.08110      6.44843         0.061940     -0.019542     -0.024956
O	      6.13432      4.04971      8.71183        -0.022160     -0.119969      0.006496
O	      8.37237      6.18697      8.75909         0.117645      0.072202     -0.109522
O	      2.15392      6.15016      6.43083        -0.060075     -0.060294      0.122481
O	      4.12678      8.05801      6.72947         0.122023     -0.011060      0.040822
O	      4.25394      6.12132      8.60975        -0.077171     -0.097076      0.036183
O	      6.31838      8.10875      8.85871         0.026586      0.100154     -0.011165
O	      6.36037      6.16211     10.89359         0.216945     -0.124173      0.052726
O	      8.36344      8.17027     10.64188         0.106298     -0.529869     -0.009505
