# total energy = -225.89588170 eV
 
CRYSTAL
PRIMVEC
0.003687 6.426847 6.365876 
6.139009 0.011185 6.357252 
4.102818 4.289744 -0.003024 
PRIMCOORD
36 1
Li	      2.09713      2.09839      0.10270         0.023372     -0.036019      0.093432
Li	      2.13428      6.48830      8.50044         0.010738     -0.079873      0.031447
Li	      4.00753      8.48528      8.46658        -0.006314     -0.070865     -0.034006
Li	      4.09609      6.42369     10.48209         0.019761     -0.082623     -0.101715
Li	      2.08432      2.14863      4.20722        -0.039164      0.009584      0.022912
Li	      8.15304      6.50649      6.38616        -0.016079      0.048551      0.056625
Li	      8.18045      6.45834     10.58276        -0.011509      0.026296     -0.071198
Li	      6.15973      8.50138      6.37122        -0.068595     -0.088583      0.027103
Li	      4.08989      6.42741      6.41538         0.034385     -0.029519     -0.042921
Sc	      6.23358      4.40855      6.32843         0.084603      0.187165      0.019862
Mn	      4.06871      4.34994      8.40862        -0.058514      0.173471      0.107265
V	      0.09012      6.41322      6.33915        -0.062520     -0.057103      0.138723
V	      5.97658      2.16039      4.21357        -0.430026     -0.044840      0.204367
V	      4.10526      8.50128      4.32150        -0.096708     -0.073783      0.056836
Fe	      4.20058      6.35293      2.17717        -0.158091      0.010391      0.009786
Co	      4.01392      4.32129      4.31017         0.019514      0.128685     -0.039728
Cu	      2.07627      4.22436      2.11626         0.009051     -0.068070     -0.022140
Cu	      6.15163      6.52409      8.34247         0.045858      0.132553     -0.032210
O	      1.98918      2.03547      2.15007         0.108062     -0.068524      0.012790
O	      4.01300      4.37336      2.09675         0.119719      0.044131      0.127011
O	      4.19996      2.17120      4.27869         0.197573     -0.233836     -0.161224
O	      6.12722      4.13116      4.28144        -0.088907      0.021268      0.102831
O	      6.18856      2.08869      6.26561         0.067675     -0.079007      0.117528
O	      8.32744      4.31214      6.42927         0.069642     -0.017303     -0.063294
O	      1.88276      4.32090      4.18060         0.130008      0.065923      0.054950
O	      4.06471      6.53360      4.20242        -0.016675      0.172358      0.020446
O	      4.11194      4.31999      6.38656         0.020135     -0.034303     -0.258857
O	      6.16983      6.39016      6.34126         0.053111     -0.101172     -0.283437
O	      6.22618      4.14898      8.51354        -0.181479     -0.192139      0.051431
O	      8.17425      6.67812      8.45011         0.110805      0.083564     -0.038198
O	      1.84885      6.40588      6.40159         0.019643     -0.018397      0.010638
O	      4.08131      8.67690      6.22218         0.035778      0.070424     -0.193172
O	      4.20801      6.29275      8.44856        -0.049856     -0.105746     -0.005919
O	      6.12575      8.63047      8.70076        -0.048911     -0.018009     -0.140420
O	      6.11653      6.45781     10.70041         0.083916      0.256411      0.258996
O	      8.31894      8.59803     10.49307         0.069999      0.068937     -0.036538
