# total energy = -225.81855508 eV
 
CRYSTAL
PRIMVEC
0.026464 6.154841 6.302615 
6.435581 -0.018760 6.346399 
4.253548 4.095785 0.024991 
PRIMCOORD
36 1
Li	      2.18858      6.09903      8.37037        -0.036371     -0.000801      0.033213
Li	      4.33187      0.01165      4.28004         0.007335     -0.004253     -0.017946
Li	      2.19335      4.12461      2.12289         0.015037     -0.041141      0.003344
Li	      8.54392      6.00914      6.38552         0.012125      0.008510     -0.004412
Li	      6.54233      4.12182      6.33527        -0.003576      0.000675      0.004305
Li	      6.57172      4.18430     10.49624        -0.025896      0.003269     -0.019817
Li	      2.11421      6.07533      4.27081        -0.010948      0.023585     -0.043103
Li	      2.11779      4.19227      6.21694        -0.037205     -0.040868      0.005447
Li	      6.42488      6.11257      8.47139         0.000606      0.002171      0.020450
Sc	      8.55162      2.05903      6.37862         0.020917      0.060136      0.021174
Mn	      4.34148      8.14925      8.41482         0.014154      0.156426      0.068856
V	      6.48693      8.18809     10.55434        -0.025329     -0.080299     -0.086137
V	      6.36365      6.17268      4.29580        -0.037697     -0.085346     -0.041904
V	      4.34140      4.03528      8.31417        -0.030027      0.047029      0.030904
Fe	      4.23978      6.08006      2.13172         0.045317     -0.021036     -0.019249
Co	      6.46865      6.14878     12.63579        -0.037771     -0.049397     -0.061156
Ni	      4.23675      4.08488      4.22745        -0.013148     -0.062433      0.082798
Ni	      4.24621      6.14275      6.30580        -0.054461      0.029631     -0.026645
O	      2.11921      1.98712      2.24685         0.040436      0.019954     -0.035766
O	      4.28415      3.99129      2.14758         0.013422     -0.122045      0.112718
O	      4.26807      2.02873      4.08874         0.002345     -0.110044      0.001769
O	      6.29991      3.97975      4.27787         0.128798      0.078039      0.000533
O	      6.44284      2.06991      6.29301         0.006977      0.062832     -0.065981
O	      8.66850      4.07770      6.42187        -0.032079      0.056603      0.009590
O	      2.17624      3.98413      4.17516        -0.110969      0.083330      0.013629
O	      4.37852      6.12763      4.25804         0.045126      0.071049      0.060370
O	      4.23296      4.10713      6.50832        -0.018798     -0.107377      0.034045
O	      6.42007      6.08685      6.09241         0.061491     -0.007344      0.032098
O	      6.16842      4.09160      8.50656        -0.079040      0.021187     -0.077167
O	      8.54069      6.33835      8.47600        -0.056695     -0.038911     -0.040857
O	      2.10790      6.17160      6.27582         0.024879     -0.042880     -0.056480
O	      4.28772      8.18334      6.46462         0.021896      0.108157      0.010429
O	      4.34980      6.13386      8.35287        -0.005391     -0.040166      0.129311
O	      6.62321      8.21276      8.56849         0.050933      0.006543      0.011454
O	      6.41881      6.35520     10.54169         0.068467      0.037482     -0.080973
O	      8.43468      8.26628     10.49336         0.035140     -0.022268     -0.008845
