# total energy = -228.20993768 eV
 
CRYSTAL
PRIMVEC
0.005732 6.362306 6.390378 
6.310970 0.038076 6.359862 
4.224810 4.238676 0.007134 
PRIMCOORD
36 1
Li	      2.10705      2.13638      0.29685        -0.025045      0.012405      0.016478
Li	      2.10063      0.26106      2.18459        -0.016227      0.004773      0.032370
Li	      3.90962      2.13448      2.18764         0.040121      0.038170      0.048964
Li	      8.34815      4.35076      4.27482         0.026375     -0.033160      0.009711
Li	      0.20982      2.12652      2.10941        -0.033889     -0.006037     -0.021172
Li	      2.10037      4.01976      2.24897        -0.024899      0.002982      0.054110
Li	      2.17003      2.03925      4.05495        -0.054078     -0.047911     -0.006367
Li	      4.19391      4.24887      4.17998         0.018834     -0.005374     -0.005507
Li	      0.07255      4.25024      4.27374        -0.044157      0.020586     -0.002779
Sc	      6.27519      2.24895      4.17583         0.094873      0.062147     -0.077774
Mn	      2.11804      6.30453      4.23200         0.056184     -0.012318     -0.141274
V	      4.19485      4.19743      0.17186        -0.048958      0.064844      0.001570
V	      4.19181      6.48146      6.35602        -0.019376      0.047255     -0.163328
V	      4.30952      4.23953      8.47620        -0.054473     -0.153838      0.119204
Fe	      8.38341      6.34140      6.28607        -0.026260      0.032322      0.108562
Co	      2.10218      4.27428      6.32249        -0.082716     -0.008126     -0.010886
Co	      6.31477      6.36806      8.53892        -0.047080      0.036413     -0.013380
Ni	      6.38074      4.23126      6.32294         0.081937     -0.037446     -0.009149
O	      2.05972      2.15146      2.17394        -0.038922     -0.017299      0.062037
O	      4.25001      4.20703      1.90619         0.020766      0.018015     -0.077124
O	      4.22766      2.17327      4.33706         0.033928     -0.036922     -0.065238
O	      6.37092      4.21655      4.31723        -0.024187     -0.080093     -0.090686
O	      6.23617      2.04768      6.31891        -0.042561     -0.089545      0.021017
O	      8.51346      4.33977      6.35313         0.104773      0.021373     -0.028324
O	      2.13670      4.42749      4.27831         0.002477      0.087611      0.009830
O	      4.14535      6.36099      4.53030        -0.002214      0.023675      0.282378
O	      4.25249      4.29700      6.45338        -0.070205      0.041559     -0.038255
O	      6.26559      6.36947      6.40477         0.017911      0.038167      0.026987
O	      6.16433      4.28229      8.43341        -0.047429      0.051897      0.004004
O	      8.41449      6.49651      8.37520         0.008478      0.051103     -0.008465
O	      2.11769      6.38287      6.41897        -0.015488      0.041716      0.018564
O	      4.22661      8.47420      6.42161         0.056196     -0.135587     -0.004302
O	      4.22973      6.27463      8.31851         0.111428     -0.030220     -0.124910
O	      6.53899      8.46492      8.46580         0.064135     -0.101544      0.065572
O	      6.39822      6.39143     10.73810         0.011000     -0.019968      0.030720
O	      8.42914      8.33212     10.43323        -0.031254      0.118374     -0.023157
