# total energy = -231.18954692 eV
 
CRYSTAL
PRIMVEC
0.055362 6.501494 6.195477 
6.342471 0.035106 6.217059 
4.223355 4.343974 0.028810 
PRIMCOORD
36 1
Li	      6.46697     10.68916      8.29096         0.006593      0.008834      0.021982
Li	      6.50657      8.67718     10.28918         0.011597     -0.020255     -0.031484
Li	     10.46246      6.56754      8.33401        -0.005423     -0.043224      0.051572
Li	      4.19285      4.36094      4.21075        -0.017528     -0.011748     -0.025501
Li	      6.27409      4.33488      6.35903         0.024114      0.050655      0.017809
Li	      8.54161      6.55865     10.22908        -0.005608     -0.019373      0.032674
Li	      6.47684      8.57482      6.31739         0.026088     -0.001973     -0.003825
Li	      8.35239      8.63364      8.31441        -0.029977     -0.014271      0.070404
Li	      6.48986      6.56249      8.27417        -0.000340     -0.041207      0.020318
Sc	      4.43985      8.67635      8.30395         0.057635      0.131204      0.104968
Mn	      6.40997      4.36481     10.28184        -0.038326      0.143965     -0.024107
V	      6.40835      0.15731      6.18242         0.123916     -0.047316     -0.045698
V	      8.43456      2.25436      6.23995        -0.143219      0.392807      0.198206
V	      6.28407      6.39549      4.18014         0.084792     -0.145317     -0.002218
Fe	      4.25595      6.24910      6.28187        -0.140454      0.101433     -0.116937
Co	      4.26411      6.53155     10.26254         0.056838      0.076459      0.135619
Co	      8.43622      4.38934      8.29065         0.086281      0.060435     -0.111429
Co	      4.25286      2.27077      6.27933         0.001140      0.026263      0.053376
O	      2.12389      2.35191      2.07022        -0.015648     -0.032448     -0.111450
O	      4.09972      4.30806      1.90607        -0.016905      0.015115     -0.041003
O	      4.08580      2.20844      4.16807        -0.028390     -0.025963      0.136638
O	      6.36218      4.59366      4.07690        -0.150774      0.064196     -0.038690
O	      6.40297      2.10964      6.19061         0.319708      0.137454     -0.047663
O	      8.52649      4.34279      6.29017         0.047242      0.349048      0.106731
O	      2.03166      4.17331      4.01252         0.032506     -0.047697      0.019348
O	      4.31536      6.47263      4.27299        -0.104481      0.025975     -0.107271
O	      4.24448      4.37718      6.24558        -0.021263     -0.275283     -0.010675
O	      6.26615      6.53828      6.09747         0.109588      0.086089     -0.011335
O	      6.50321      4.37336      8.38849        -0.010208     -0.068265      0.005399
O	      8.45711      6.32581      8.28732         0.000993     -0.033644     -0.121283
O	      2.10439      6.69797      6.22795         0.029272     -0.561121      0.002244
O	      4.25986      8.81735      6.14670        -0.256547     -0.108048     -0.049040
O	      4.26715      6.60733      8.19708         0.016889      0.054663      0.063810
O	      6.37341      8.71450      8.33993        -0.021281     -0.031745     -0.016493
O	      6.35290      6.57442     10.53783         0.015318     -0.050848      0.082487
O	      8.64955      8.79415     10.42774        -0.044140     -0.144849     -0.207486
