# total energy = -223.26375130 eV
 
CRYSTAL
PRIMVEC
0.000071 6.417052 6.286441 
6.355095 0.004680 6.282010 
4.236978 4.275177 0.002863 
PRIMCOORD
36 1
Li	      4.26361      4.27315      0.10600        -0.010330      0.005975      0.007924
Li	      2.16197      8.39658      6.38677        -0.015753     -0.085707     -0.016265
Li	      2.05331      0.05773      1.98689         0.035311     -0.004758     -0.015449
Li	      4.06945      2.33241      1.99701        -0.044861      0.079819     -0.021718
Li	      2.28747      4.12619      2.09772         0.033216      0.004747     -0.031323
Li	      2.10963      2.23686      4.09447         0.070204      0.016809     -0.005418
Li	      4.18952      4.27574      4.07489         0.047065     -0.023852     -0.024677
Li	      2.15364      4.31389      6.27623         0.004707     -0.010019      0.026495
Li	      4.13463      6.43554      6.27720         0.019248     -0.015868      0.056011
Sc	      6.40597      4.35866      6.29803         0.078422      0.010183     -0.249894
Mn	      2.15690      6.36285      4.30535        -0.141584      0.127291     -0.115329
V	      6.17566      2.14585      4.19078        -0.088820      0.275483      0.073572
V	      4.30447      8.52876      4.35087        -0.020006     -0.010454      0.019417
V	      8.41335      8.59474      8.39306        -0.151655      0.000789     -0.059564
Fe	      4.42295      6.23192      2.10680        -0.090167      0.055219     -0.068360
Cu	      8.44453      4.27514      4.21948        -0.075010      0.082887     -0.090714
Cu	      8.43881      6.41518      6.29999        -0.027102     -0.044553     -0.113189
Ni	      6.36154      6.43337      8.36331        -0.028566     -0.012721     -0.048051
O	      2.06352      2.14152      2.06054         0.052811      0.062134     -0.024258
O	      4.22647      4.37180      2.10333        -0.006727     -0.026355     -0.009268
O	      4.43784      2.23976      4.01064         0.037487      0.071785     -0.071353
O	      6.45341      4.09950      4.22430        -0.227378     -0.174076      0.109042
O	      6.29784      2.17989      6.23082         0.080098      0.055454      0.058744
O	      8.46471      4.42342      6.20215         0.016939      0.023335      0.182636
O	      1.95927      4.38724      4.16575        -0.056320      0.069246      0.042012
O	      4.31789      6.57106      4.13625        -0.082266      0.097080      0.076175
O	      4.26278      4.19087      6.43438         0.117899      0.071529      0.204178
O	      6.43843      6.41108      6.33291        -0.097948     -0.048698     -0.050784
O	      6.24415      4.28574      8.47863        -0.151027     -0.136863      0.039548
O	      8.52056      6.59914      8.57410         0.133192     -0.010616      0.201822
O	      2.13843      6.36572      6.16454         0.012093     -0.029778     -0.037925
O	      4.17750      8.56191      6.09287         0.016803     -0.012142     -0.063399
O	      4.26865      6.17547      8.45723        -0.100218     -0.094285     -0.097115
O	      6.47134      8.49670      8.49961         0.236047      0.084694     -0.017505
O	      6.24351      6.41403     10.42192         0.296950     -0.134007      0.163332
O	      8.41493      8.39957     10.45423         0.127246     -0.319703     -0.029353
