# total energy = -222.82636014 eV
 
CRYSTAL
PRIMVEC
-0.007808 6.355279 6.648034 
6.031288 0.065629 6.577538 
4.064487 4.233179 0.000011 
PRIMCOORD
36 1
Li	      6.08525      6.38367     13.02491        -0.105055      0.135853      0.045820
Li	      2.06177      8.41308      6.66788        -0.150103      0.052890      0.042116
Li	      4.12096      8.53801      8.66258        -0.088964      0.099293     -0.048982
Li	      6.02345      8.34329     11.01393        -0.071844      0.074091      0.124142
Li	      8.02969      4.30498      8.76413        -0.024762      0.052979     -0.062255
Li	      6.03370      4.24436      6.66755         0.072344     -0.057852      0.061611
Li	      6.05305      4.46636     11.06968         0.022177     -0.161814     -0.010240
Li	      1.88532      6.30252      4.57293         0.145125     -0.033295     -0.049062
Li	      6.04036      6.38438      9.03871         0.041835     -0.095296     -0.010629
Sc	      2.03793      2.14342      4.30828         0.285694      0.140558      0.072889
Mn	      4.01932      6.42814      6.65711         0.432610     -0.181303     -0.210280
V	      8.08668      6.30753      6.63967        -0.058387     -0.568595     -0.076729
V	      4.06593      4.28509      4.36330        -0.128385     -0.241930     -0.007591
V	      8.04685      8.52613      9.12357         0.580493     -0.428948     -0.158864
Fe	      6.06088      2.22132      8.71886        -0.235289     -0.136244     -0.265995
Cu	      2.01660      6.35067      8.78236        -0.258537      0.277099      0.050714
Cu	      8.14371     10.57324     11.06592        -0.391255     -0.025897      0.259244
Cu	      6.00723      8.56461      6.67877         0.063881     -0.133626     -0.217146
O	      5.95275      6.38105     11.04388         0.094817     -0.008764     -0.035441
O	      2.00348      2.05909      2.23349         0.333959      0.089554     -0.119999
O	      4.11017      4.31317      2.37715        -0.000113     -0.174085     -0.039171
O	      4.07235      2.30078      4.63789         0.136339      0.162688     -0.504417
O	      5.96474      4.30830      4.56343         0.312830     -0.100903      0.023821
O	      5.88926      2.20260      6.72162         0.912076      0.085254      0.006033
O	      8.04102      4.52095      6.56385        -0.095848     -0.176421      0.043143
O	      2.20234      4.21359      4.26645        -0.099145      0.189541     -0.061865
O	      4.06254      6.24855      4.27223        -0.148629      0.175509      0.124669
O	      3.96111      4.33191      6.49227        -0.108662      0.157215      0.021490
O	      6.07043      6.44345      6.49439        -0.802365      0.276925      0.041395
O	      5.93377      4.18389      8.78010        -0.121847      0.313214      0.088652
O	      8.05489      6.53602      8.56208        -0.065765      0.335711      0.644724
O	      2.13357      6.37850      6.52922        -0.267268     -0.119783     -0.105722
O	      4.07054      8.35282      6.63510         0.035626      0.096263     -0.009371
O	      3.99732      6.23389      8.85458         0.199957      0.121983     -0.061908
O	      6.15515      8.60310      8.86911        -0.360017     -0.227304      0.137918
O	      8.06490      8.39601     10.86519        -0.087523      0.035441      0.267285
