# total energy = -90.77922409 eV
 
CRYSTAL
PRIMVEC
-0.001062 2.066972 2.068391 
8.651682 -4.265704 4.263079 
2.105966 2.107079 -4.177048 
PRIMCOORD
16 1
Li	      2.41914      1.90828      0.17100        -0.043294     -0.021410      0.006589
Li	      4.16764      2.00222     -2.00577        -0.019271      0.047526     -0.053239
Li	      4.39545      0.04238     -0.05028         0.019834     -0.047382      0.055118
Li	      4.03697      0.09597      4.01872         0.042517      0.022448     -0.007706
Mn	      0.07286      0.01761     -0.01725         0.144942     -0.001225      0.006956
Mn	      6.38395     -0.08032      2.13861        -0.143701      0.001791     -0.007436
Ni	      8.55121     -0.05621      0.04854        -0.044873      0.038657     -0.049815
Ni	      8.66327     -2.16521      2.15897         0.045646     -0.038410      0.047825
O	      2.01501      2.26213     -2.26508         0.095627      0.005470     -0.000935
O	      6.54814     -0.21778      0.20945        -0.100010     -0.005069      0.001789
O	      6.59982     -2.12551      2.11683        -0.085051      0.081220     -0.069444
O	      8.60690     -0.07720      2.13798         0.000217     -0.000885      0.000205
O	      8.50873     -2.20296      4.26769         0.085450     -0.082303      0.070512
O	      1.85515      0.03660     -0.02884        -0.073698     -0.012542     -0.002282
O	      4.28092      2.05580      0.00622         0.001194     -0.000183      0.000073
O	      4.60170     -0.09910      2.14994         0.074470      0.012298      0.001790
