# total energy = -136.08183133 eV
 
CRYSTAL
PRIMVEC
2.074838 2.074856 0.000042 
2.099934 -2.099779 11.905818 
4.199676 -4.199707 0.000015 
PRIMCOORD
24 1
Li	      5.23565     -3.15999      0.95082         0.006636     -0.006545      0.028451
Li	      3.13973     -1.06314      0.95087        -0.008376      0.005454      0.027830
Li	      3.12878     -1.05590      4.97263         0.004882     -0.001976     -0.011661
Li	      3.13038     -1.05437      8.95794         0.060578     -0.062587     -0.012913
Li	      5.24653     -3.17216      4.97301        -0.005920      0.006217     -0.014666
Li	      5.24389     -3.16796      8.95818        -0.060267      0.059520     -0.011219
Mn	      5.22513     -1.07558      2.98434        -0.002399      0.002928     -0.015868
Mn	      5.22460     -1.07536      6.94405         0.000622      0.000309      0.056977
Mn	      3.12516      1.02435      2.99887         0.001184     -0.000304     -0.055921
Ni	      3.15012     -3.14807     10.91635         0.001379     -0.004769      0.027482
Ni	      7.32449     -3.17534      6.92197        -0.000658      0.001846     -0.124630
Ni	      5.25003     -5.24787     10.89676        -0.001833     -0.001156      0.077354
O	      5.23127     -3.15667      3.00049        -0.012135      0.012672      0.015468
O	      3.14405     -1.06940      3.00034         0.011510     -0.011104      0.015757
O	      3.22477     -1.15044      6.91641         0.081626     -0.079903      0.004580
O	      3.15078     -1.07392     10.92136        -0.015228      0.014513     -0.025211
O	      5.14973     -3.07531      6.91688        -0.079568      0.080964      0.004687
O	      5.22437     -3.14736     10.92153         0.015122     -0.017080     -0.021365
O	      3.15040     -3.14968      1.11950        -0.002135      0.001169      0.067135
O	      1.05063     -1.04975      1.13244        -0.004070      0.002332      0.085373
O	      3.12521      1.02352      4.92029         0.002103     -0.000143     -0.076133
O	      5.24961     -5.24853      8.85461         0.003507     -0.001722      0.086282
O	      5.22498     -1.07628      4.94264         0.001012      0.001713      0.012281
O	      3.14933     -3.14915      8.80235         0.002429     -0.002349     -0.140070
