# total energy = -223.70848735 eV
 
CRYSTAL
PRIMVEC
-0.006338 6.403764 6.215586 
6.253309 0.025137 6.183662 
4.184874 4.264055 0.000871 
PRIMCOORD
36 1
Li	      2.04684      2.16855      0.13337         0.004596      0.010612     -0.006166
Li	      6.20751     10.59156      8.26705         0.011288     -0.007783      0.055923
Li	      6.24782      8.56516     10.23183        -0.028714      0.064177      0.044987
Li	      6.24748      2.09709      8.17621        -0.018665      0.010067      0.060979
Li	      2.15258      4.26806      2.01910        -0.000324     -0.016886      0.012068
Li	      4.16350      4.29542      4.00472        -0.019452      0.079600     -0.025145
Li	      6.31801      4.19235      6.29060        -0.013619     -0.062515      0.069056
Li	      8.18231      8.47974      8.30024        -0.040440      0.013017     -0.013917
Li	      6.32158      6.58680      8.24809        -0.009885      0.022068      0.015163
Sc	      2.06872      2.19778      4.01195        -0.006856     -0.077270     -0.019605
Mn	      8.34270      6.41674      6.30560         0.011060      0.039104     -0.006725
V	      8.27046     10.61992     10.32060        -0.121024     -0.016392      0.055169
V	      6.21116      4.31370     10.15132         0.025794     -0.110027     -0.242613
V	      4.15061      6.35486      6.32862         0.049314     -0.076577     -0.012176
Fe	      0.03352      0.10965      0.12408         0.033268     -0.014249     -0.126165
Ni	      4.21062      8.58170      8.27565        -0.057978      0.009167      0.075677
Ni	      8.32974      6.43136     10.23241        -0.009662      0.038691     -0.036032
Ni	      6.26990      8.56738      6.28268         0.093030     -0.036573     -0.071402
O	      2.15382      2.15179      2.07961        -0.138582     -0.005891      0.026996
O	      4.19818      4.22589      2.00880        -0.006297      0.123919      0.097427
O	      4.16053      2.02309      4.26070         0.027796     -0.047929      0.022995
O	      6.48226      4.30029      4.14487         0.002645     -0.017059      0.011762
O	      6.12166      2.08275      6.19617         0.023329      0.079491     -0.010987
O	      8.45059      4.22156      6.06975        -0.065814     -0.001422     -0.003417
O	      1.98978      4.30950      4.18621         0.000350     -0.103139     -0.096888
O	      4.14673      6.50531      4.23167         0.084565      0.006199      0.007428
O	      4.18393      4.53321      6.16456         0.083546      0.029802     -0.013864
O	      6.26244      6.43513      6.21288         0.027816     -0.045432      0.007292
O	      6.27948      4.25302      8.42545         0.013122      0.014162      0.060704
O	      8.34024      6.44272      8.19217        -0.015192     -0.014249     -0.063646
O	      2.11165      6.40067      6.12947         0.024151      0.089984      0.134386
O	      4.20129      8.35463      6.13663        -0.092495      0.029905     -0.104037
O	      4.18665      6.45472      8.28445         0.006816     -0.080935     -0.010816
O	      6.20020      8.55836      8.26237         0.172291      0.034008      0.120060
O	      6.18439      6.28769     10.41330        -0.058100     -0.005934     -0.017655
O	      8.43044      8.63087     10.31499         0.008322      0.046287      0.003180
