# total energy = -229.87657036 eV
 
CRYSTAL
PRIMVEC
-0.043074 6.363861 6.307290 
6.338709 -0.021379 6.285637 
4.235777 4.237925 -0.024312 
PRIMCOORD
36 1
Li	      6.27975     10.55290      8.33900        -0.049339     -0.006354     -0.043409
Li	      4.09425      6.33416      2.22001        -0.001566     -0.072545      0.003007
Li	      2.12153      4.30951      2.22432         0.007173      0.002474      0.015401
Li	      4.07867      4.38470      4.17101         0.002636     -0.033233     -0.046656
Li	      0.07682      4.12866      4.16426         0.036231     -0.071360     -0.034196
Li	      2.24929      6.19661      4.18149         0.009899     -0.010623      0.058305
Li	      2.22623      4.31266      6.16122         0.125306      0.098698     -0.016851
Li	      4.14682      6.29343      6.18160        -0.097088     -0.011007      0.011575
Li	      4.19672      4.27049      8.33643        -0.011750      0.023575     -0.055061
Sc	      6.19662      6.43687      4.15247        -0.058095      0.098507     -0.248123
Mn	      8.44393      6.34553      6.33764        -0.004592      0.103355      0.029030
V	      2.15671      2.05897      0.10716        -0.126131      0.051408      0.055926
V	      6.32656      8.50820     10.43225        -0.010305      0.049405     -0.105461
V	      6.34033      6.29588      8.41485        -0.033910      0.010097      0.024272
Fe	      4.25212     10.51387      6.34953         0.033950      0.225944     -0.107488
Fe	      6.18053      4.24084      6.34714         0.048029     -0.056912     -0.037788
Co	      4.23778      8.52715      8.34420        -0.076344     -0.053081      0.103352
Ni	      4.20324      6.32516     10.48662        -0.012395      0.042260     -0.081858
O	      2.11790      2.07382      1.94286         0.122500      0.107417      0.165569
O	      4.23786      4.19632      1.94977        -0.034178     -0.182014      0.026104
O	      4.42249      2.06811      4.20891         0.011134      0.049321     -0.100396
O	      6.40852      4.16935      4.23420        -0.049038     -0.076677      0.032351
O	      6.41738      2.11261      6.23808        -0.111134     -0.104151      0.015802
O	      8.47213      4.11094      6.21838         0.078366      0.089375      0.162121
O	      2.11612      4.14714      4.19362        -0.019612     -0.023783      0.037659
O	      4.26546      6.36083      4.11976        -0.078922     -0.006050      0.094107
O	      4.28059      4.21834      6.30239        -0.041924     -0.075459     -0.024217
O	      6.29453      6.26303      6.31617         0.023228     -0.031912      0.093567
O	      6.27963      4.34464      8.31866         0.009431      0.092048      0.078826
O	      8.18310      6.36470      8.41138         0.072374      0.009008      0.049928
O	      2.00690      6.49198      6.29050         0.006798     -0.148610     -0.061531
O	      4.03526      8.55213      6.20066         0.130488     -0.115483      0.085797
O	      4.41573      6.44559      8.44076        -0.011546      0.091508     -0.130702
O	      6.34369      8.42378      8.51674         0.004506     -0.030969     -0.045394
O	      6.27170      6.47698     10.45645         0.137072      0.015227      0.109707
O	      8.20415      8.50226     10.67012        -0.031253     -0.049403     -0.113274
