# total energy = -227.09864885 eV
 
CRYSTAL
PRIMVEC
-0.037150 6.407998 6.035673 
6.528931 -0.039538 6.037839 
4.321041 4.241226 0.005989 
PRIMCOORD
36 1
Li	      8.63133      4.24729      4.09583        -0.054475      0.004363      0.038004
Li	      6.43609      2.16416      4.09052        -0.011322      0.014669      0.024992
Li	      4.31934      6.39846      2.06850         0.007078     -0.006063     -0.020079
Li	      2.12304      4.23314      2.07023         0.038836     -0.064081     -0.030559
Li	      6.36986      6.46835      4.10031         0.024360     -0.013042     -0.058639
Li	      4.51335      8.28605      4.02943         0.099436     -0.030547      0.013964
Li	      2.30611      6.27485      4.00328         0.005816      0.002670      0.039473
Li	      2.11017      4.19451      5.91450        -0.014488      0.090275     -0.013849
Li	      4.42262      6.40787      5.94178        -0.044901      0.025653     -0.023900
Sc	      4.35518      2.08374      2.08784        -0.032193      0.062607     -0.104466
Mn	      8.64648      8.47378     11.98167         0.123821     -0.064489      0.003408
V	      6.47788      6.35951     11.91006        -0.025189     -0.068035     -0.092728
V	      6.50757      4.23143      2.08411        -0.195257     -0.002346     -0.260798
V	      8.63116      8.50266      8.09482        -0.075174      0.018988      0.093811
Fe	      4.16294      4.40121      4.10903         0.156804     -0.117103      0.013261
Fe	      6.54706      6.30536      8.05853        -0.049442      0.080727      0.370303
Cu	      4.33830      2.09546      6.01157        -0.083617      0.032962      0.084925
Cu	      6.50774      4.23614      5.98887        -0.084696     -0.104529      0.031190
O	      2.25777      1.99397      1.89532         0.029700      0.034861      0.078388
O	      4.42691      4.18282      1.93477        -0.012246     -0.008890     -0.003674
O	      4.33634      2.19222      4.08391        -0.024094     -0.020514     -0.047592
O	      6.35677      4.21888      4.03284         0.178734      0.051199      0.164880
O	      6.42129      1.99708      6.06091        -0.064370      0.020235      0.047781
O	      8.86529      3.98327      6.05811         0.230570      0.030354     -0.021371
O	      2.27210      4.25175      3.98174        -0.141398     -0.040857     -0.001189
O	      4.31980      6.29492      4.02275         0.048768      0.130195     -0.002114
O	      4.19957      4.39381      6.22078        -0.059197      0.053379     -0.017295
O	      6.59196      6.26544      6.12200        -0.009002      0.056289     -0.254242
O	      6.34291      4.31144      7.99439         0.085935     -0.023414     -0.023133
O	      8.52735      6.50360      8.01690         0.028706     -0.082250     -0.031489
O	      1.97481      6.55787      6.05502        -0.128895     -0.015961     -0.021242
O	      4.35721      8.65054      6.02068         0.046807     -0.059902      0.043993
O	      4.34172      6.36526      8.09659         0.080845      0.004721     -0.015861
O	      6.51894      8.53537      8.06898        -0.020327     -0.057646     -0.004021
O	      6.49212      6.39458     10.10797        -0.062948      0.050563      0.082648
O	      8.61149      8.51094      9.95195         0.007017      0.014960     -0.082778
