# total energy = -228.39316717 eV
 
CRYSTAL
PRIMVEC
0.011667 6.304788 6.349902 
6.280866 0.019034 6.342354 
4.213316 4.224098 -0.013160 
PRIMCOORD
36 1
Li	      6.36555      6.30237     12.58877         0.015293     -0.028325      0.030486
Li	      8.39204      8.42289     12.54739         0.019620      0.004832      0.004430
Li	      8.31094      4.28639      8.37530         0.015085     -0.015338     -0.044310
Li	      4.21847      4.24070      4.28144        -0.007645     -0.003524     -0.003396
Li	      4.18215      2.10690      6.31406        -0.010825      0.002547      0.016802
Li	      6.25386      4.30112     10.61434         0.001610     -0.030152      0.010033
Li	      8.24634      6.38940     10.65647        -0.008478      0.020842      0.026478
Li	      2.10274      4.23485      6.32005         0.028729     -0.032560     -0.004094
Li	      6.38851      6.28427      8.59365         0.016713     -0.011906      0.059883
Sc	      4.22225      8.48789      8.37483         0.022060      0.013921     -0.091233
Mn	      6.30626      4.22314      6.35304        -0.011269      0.039789      0.025772
V	     10.34926      6.35738      8.43246        -0.049064      0.002022      0.082890
V	      2.09385      2.28341      4.23284         0.017718     -0.130426      0.028549
V	      4.16749      6.33648      6.29198         0.012052     -0.007694     -0.058276
Fe	      2.08913      6.28175      8.40515         0.009705      0.040333     -0.000820
Fe	      8.50846     10.47329     10.66534        -0.068487      0.059007     -0.049088
Ni	      6.30084      2.10160      4.27095        -0.068307      0.029548      0.038794
Ni	      8.42259      8.44140      8.48224        -0.025854     -0.090205     -0.031402
O	      2.02023      2.04353      2.21874         0.043322      0.074495     -0.016759
O	      4.27370      4.28018      2.05776        -0.035338     -0.018395     -0.025311
O	      4.13523      2.04926      4.18642        -0.081941      0.037869     -0.019840
O	      6.37933      4.28704      4.11231        -0.022986      0.047011     -0.007613
O	      6.28263      2.21485      6.47927        -0.019921      0.029758      0.045302
O	      8.23804      4.23135      6.26732        -0.012112      0.018649      0.123341
O	      2.17335      4.01720      4.24242        -0.006866      0.143612      0.009128
O	      4.35834      6.28432      4.15549        -0.025172      0.021888     -0.012375
O	      4.34101      4.29252      6.40047        -0.000078     -0.062063     -0.099796
O	      6.23613      6.24784      6.19464         0.026227     -0.008695     -0.003403
O	      6.29856      4.07421      8.49861         0.083169     -0.001636      0.039446
O	      8.56154      6.30558      8.51609         0.010106     -0.068205      0.001884
O	      2.19788      6.26941      6.42351        -0.018575      0.041866     -0.117401
O	      4.21254      8.32633      6.36363         0.054321     -0.000701     -0.001057
O	      4.15823      6.34017      8.43164         0.005670      0.098270      0.044011
O	      6.30334      8.49123      8.50913        -0.132951     -0.041889     -0.150069
O	      6.22058      6.37470     10.59976         0.105444     -0.103285     -0.000812
O	      8.33985      8.50817     10.51282         0.119025     -0.071261      0.149827
