# total energy = -234.37289546 eV
 
CRYSTAL
PRIMVEC
-0.024079 6.430570 6.293219 
6.252050 -0.019148 6.288679 
4.161810 4.277696 -0.006756 
PRIMCOORD
36 1
Li	      4.15303     10.68418      6.30260        -0.017714      0.007181     -0.028594
Li	      6.16778      4.27095      2.15095         0.009306      0.000503      0.006789
Li	      4.17260      2.19365      2.11125         0.003150     -0.011610      0.001064
Li	      4.16134      6.40971      2.19988         0.016309      0.017896      0.028698
Li	      2.12283      2.15556      4.11940         0.031337     -0.015913     -0.008413
Li	      4.12103      4.27469      4.14958        -0.011816      0.010430      0.028752
Li	      4.13005      2.14391      6.25189         0.004376      0.005322     -0.036860
Li	      0.02037      4.21011      4.14713         0.006014     -0.059306      0.003042
Li	      6.27214      6.41759      8.38737        -0.006808     -0.008168      0.005098
Sc	      4.17087      6.44019      6.28644        -0.011761     -0.029307      0.027688
Mn	      2.02218      6.36230      4.21604        -0.028849     -0.048552      0.035606
V	      2.11244      2.15618      0.05293        -0.043869      0.019093     -0.066745
V	      2.19912      4.26475      2.13751        -0.253622      0.023995      0.120794
V	      6.25612      4.31687      6.28472         0.054236      0.018925      0.030576
Fe	      4.20174      6.50098     10.40671        -0.005987     -0.066594      0.077418
Fe	      6.18105      2.16885      4.15250         0.057604     -0.007996     -0.089428
Fe	      8.32973      8.50013      8.39905         0.008455      0.007039      0.004220
Co	      6.19049      8.49443      6.28507         0.017821     -0.032511     -0.047430
O	      2.05603      2.29266      2.00195        -0.039157      0.025174      0.098127
O	      3.96104      4.30863      2.08438         0.190991      0.026751     -0.017698
O	      4.24108      2.02140      4.15256        -0.078289      0.094687      0.012190
O	      6.31704      4.22392      4.23521         0.014020      0.018293     -0.084421
O	      6.35837      2.28180      6.17340        -0.021879     -0.058376      0.051556
O	      8.33442      4.24349      6.32023         0.043113      0.027247     -0.002399
O	      2.00817      4.20977      4.08720        -0.012435     -0.012321      0.053212
O	      3.95812      6.37244      4.25197        -0.041431      0.003155     -0.028992
O	      4.14879      4.26409      6.40337        -0.114726      0.020434     -0.057713
O	      6.23172      6.33716      6.24610        -0.061549      0.186211      0.017333
O	      6.27098      4.25998      8.28458         0.045537     -0.040349      0.107088
O	      8.30748      6.36701      8.52578         0.005292      0.006515     -0.016635
O	      2.02778      6.45880      6.21682         0.032305     -0.097256     -0.010649
O	      4.10088      8.51864      6.31129         0.153305     -0.042908     -0.009084
O	      4.16227      6.28515      8.43802         0.004967      0.007360     -0.070749
O	      6.32353      8.56196      8.42018         0.018261     -0.012698     -0.109077
O	      6.25366      6.53873     10.50780         0.064826     -0.003336      0.014344
O	      8.31859      8.65917     10.48805        -0.031333      0.020992     -0.038710
