# total energy = -230.68795261 eV
 
CRYSTAL
PRIMVEC
0.038881 6.126775 6.533717 
6.299643 0.010370 6.562419 
4.204653 4.108124 0.001914 
PRIMCOORD
36 1
Li	      6.36155     10.19010      8.74676         0.046453      0.022933     -0.002947
Li	      4.27545      6.08159     10.84103         0.047102      0.029780     -0.088725
Li	      2.11554      4.14449      2.27404        -0.013852      0.007583      0.034357
Li	      6.30853      4.12630      6.51904        -0.014081     -0.014885      0.001205
Li	      6.34979      4.14937     10.81756        -0.012727      0.028246     -0.035308
Li	      8.41353      6.11287     10.86441         0.038926     -0.014583      0.002136
Li	      6.39205      8.14410      6.55904        -0.011284     -0.004301      0.023704
Li	      8.37171      8.22867      8.75491        -0.034244     -0.011328     -0.000449
Li	      6.32637      6.14906      8.83024        -0.037201     -0.003364      0.069389
Sc	      0.13395      6.08298      6.46325         0.034583     -0.008114     -0.015603
Mn	      6.37478      8.21759     10.79793         0.048372      0.039137     -0.016726
V	      4.25582      8.19229      8.71873         0.064269     -0.154886      0.070938
V	      6.29757      2.16527      8.78615        -0.049173     -0.149900     -0.038172
V	      8.36356      6.17203      6.65295         0.019692      0.055346      0.025114
Fe	      8.44274      8.25575     12.99004        -0.029576     -0.036582      0.163799
Fe	      6.29131      6.18288      4.39132         0.070703     -0.182476     -0.051472
Fe	      4.22861      6.00534      6.68875        -0.044469      0.061404     -0.063644
Cu	      4.18021      4.10767      4.37669        -0.062772     -0.032721      0.039339
O	      2.09238      2.04355      2.20898         0.063339      0.028413      0.013704
O	      4.21666      4.16616      2.04819         0.025876     -0.041298     -0.177947
O	      4.20207      2.03991      4.42020        -0.044657     -0.026695     -0.041989
O	      6.19648      4.05628      4.34916         0.077266      0.006791      0.017724
O	      6.33938      2.07848      6.71993        -0.021365      0.018252     -0.068324
O	      8.45602      4.13480      6.55666         0.024851      0.054251     -0.030200
O	      2.20646      4.00659      4.35157        -0.079847      0.143368     -0.005785
O	      4.28331      6.12727      4.25351        -0.085476      0.038612     -0.006249
O	      4.19585      4.07190      6.64901         0.004469     -0.167066      0.089577
O	      6.26138      6.10672      6.40955         0.020543     -0.000735      0.038025
O	      6.32864      3.91727      8.80559         0.013869      0.150062      0.008063
O	      8.53563      6.14615      8.61686        -0.007970     -0.019019      0.009183
O	      2.21287      6.21944      6.50157        -0.083635     -0.079018     -0.013653
O	      4.16140      8.13027      6.59169         0.068824      0.048799      0.029429
O	      4.23207      6.18185      8.62616         0.004987      0.231424      0.111436
O	      6.19112      8.18748      8.73285        -0.102048      0.019518      0.097674
O	      6.36601      6.28170     10.95621        -0.000737     -0.006258     -0.003350
O	      8.33501      8.25543     11.05887         0.060991     -0.030691     -0.184252
