# total energy = -231.75986477 eV
 
CRYSTAL
PRIMVEC
0.018812 6.347558 6.262928 
6.302631 0.025362 6.256174 
4.219991 4.245457 -0.001204 
PRIMCOORD
36 1
Li	      6.31303      6.36416     12.48020        -0.004357     -0.004569     -0.035277
Li	      6.36448     10.58288      8.37062         0.019575      0.037370      0.009904
Li	      8.46544     10.52627     10.40316         0.023518     -0.017084     -0.022257
Li	      6.44527      8.44336     10.38370         0.112044     -0.046435     -0.025572
Li	      2.12891      4.20723      2.11111        -0.007612     -0.030463     -0.038251
Li	      2.06546      2.18282      4.13634        -0.008805      0.003158      0.005109
Li	      4.16792      4.26448      4.19248        -0.074281      0.051199      0.039832
Li	      8.38164      6.40183     10.42996        -0.010671      0.003562     -0.011099
Li	      8.41426      8.49926      8.40798         0.010081     -0.037517     -0.016913
Sc	      4.19171      6.22211      2.16616        -0.057176     -0.043583      0.040871
Mn	      6.35905      6.36830      8.39218         0.017749      0.064316      0.010536
V	      4.20058      2.19560      2.27195         0.023206     -0.018291     -0.029615
V	      6.31060      4.24394      6.12580        -0.006081      0.032169      0.020557
V	      2.13913      4.37651      6.25118         0.001952      0.020542      0.019585
Fe	      8.45832      8.46577     12.46057        -0.045455     -0.005667      0.067250
Fe	      4.23117      2.08984      6.19084        -0.018485      0.008025     -0.112042
Fe	      6.32187      4.26841     10.37460        -0.005644      0.018655      0.031668
Ni	      4.21103      6.37389      6.23688         0.025690     -0.006534      0.013959
O	      2.18659      2.08121      2.00891        -0.030528      0.001514      0.043215
O	      4.19182      4.17273      2.10458        -0.015576     -0.040282      0.001551
O	      4.19273      2.14120      4.04976         0.000254      0.022197      0.143146
O	      6.29317      4.29174      4.38228        -0.018529      0.000564     -0.096520
O	      6.38182      2.23064      6.26369        -0.043935     -0.033923     -0.018482
O	      8.27797      4.18165      6.24082         0.000499      0.008175      0.016822
O	      2.00941      4.19786      4.31851         0.074621     -0.013455     -0.077061
O	      4.25049      6.44705      4.16450        -0.022065     -0.068888     -0.118740
O	      4.25512      4.29685      6.26389         0.084295     -0.110720      0.032672
O	      6.29791      6.34177      6.39204         0.093291     -0.022830     -0.055502
O	      6.29165      4.16753      8.29319         0.012373     -0.009933     -0.066199
O	      8.38296      6.35554      8.27758         0.002457     -0.032540      0.059590
O	      2.15855      6.36076      6.26008        -0.117837      0.082607     -0.001392
O	      4.21210      8.50195      6.30584         0.018057      0.115051     -0.002675
O	      4.35451      6.55222      8.32039        -0.011378      0.004707      0.110991
O	      6.20271      8.55380      8.27234         0.050471      0.012482      0.094652
O	      6.33465      6.28725     10.29196         0.004615      0.047923      0.073900
O	      8.53203      8.49013     10.50872        -0.076333      0.008498     -0.108216
