# total energy = -90.40723827 eV
 
CRYSTAL
PRIMVEC
2.098169 2.097875 -0.000003 
-8.414618 8.413465 -0.000047 
0.000002 -0.000009 3.934208 
PRIMCOORD
16 1
Li	     -5.22167      7.31711      0.98226         0.051369     -0.048650      0.003229
Li	     -3.15754      5.25598      0.98381        -0.006289      0.008561     -0.001133
Li	     -1.09047      3.19639      0.98197        -0.040968      0.039009     -0.000188
Li	     -7.36655      9.45952      0.98093         0.002666      0.001708      0.002333
Mn	     -1.07783      1.08165      2.94834        -0.047006      0.049175      0.000822
Mn	     -5.23690      9.42960      2.94880         0.060101     -0.051378     -0.003015
Ni	     -3.19810      3.20037      2.95012         0.033519     -0.032716      0.000193
Ni	     -5.21345      5.21294      2.95062        -0.038560      0.037542     -0.004616
O	     -5.32221      7.42210      2.94975        -0.114500      0.102270     -0.005040
O	     -3.15789      5.25495      2.95096         0.004312     -0.003453     -0.002037
O	     -0.98514      3.09609      2.94880         0.097226     -0.107260      0.000837
O	     -7.36996      9.45497      2.94847         0.004980      0.006551     -0.004843
O	     -5.28061      9.47215      0.98095        -0.047392      0.045420      0.007611
O	     -3.17829      7.37286      0.98319         0.011768     -0.011805      0.004148
O	     -3.13409      3.14048      0.98305        -0.012190      0.010684     -0.000442
O	     -1.03444      1.03715      0.98105         0.040962     -0.045657      0.002139
