# total energy = -234.75737691 eV
 
CRYSTAL
PRIMVEC
-0.011862 6.512341 6.139096 
6.342216 0.002635 6.125139 
4.234684 4.338681 -0.004811 
PRIMCOORD
36 1
Li	      6.38712      0.09310      6.11280         0.006886      0.015626     -0.032201
Li	      8.28122      2.21392      6.09999         0.017528     -0.016937     -0.011150
Li	      8.41395      4.30367      4.15886         0.031136     -0.011505     -0.010954
Li	      6.39297      2.26318      4.15205        -0.008299      0.029671     -0.039868
Li	      0.11188      2.13104      1.95436        -0.011149     -0.004423      0.035993
Li	      6.32832      6.41256      4.05965        -0.062050     -0.041314      0.053625
Li	      6.40309      4.19271      6.01655        -0.031850      0.014729     -0.033318
Li	      2.08139      4.41572      6.15595         0.002246      0.034146     -0.004705
Li	      4.20611      6.52330      6.12354         0.022272      0.045078      0.004424
Sc	      4.35975      2.11139      6.01947         0.044146     -0.060587     -0.054537
Mn	      4.23853      4.41021      4.11631         0.068788     -0.025785      0.032902
V	      4.24416      8.64897      4.23986         0.009769      0.063330      0.004342
V	      4.20603      4.36158      8.14658         0.042447      0.006698     -0.014627
V	      6.30180      6.53779      8.11362         0.010706     -0.033960      0.158392
Fe	      2.11520      0.07234      1.98630         0.000900     -0.060904     -0.049569
Fe	      4.17443      2.15836      2.00837         0.084321     -0.041633     -0.008576
Fe	      2.10014      4.22279      1.95106        -0.074706      0.084692      0.136079
Fe	      2.13337      6.56257      4.23985        -0.051965      0.028415     -0.086578
O	      2.16184      2.26702      2.02593        -0.026475      0.023333      0.025587
O	      4.14270      4.25444      2.11917        -0.077260      0.004506      0.062001
O	      4.19648      2.14571      3.98966        -0.030894     -0.037042      0.117579
O	      6.14871      4.39638      3.98835        -0.040681     -0.060628      0.235939
O	      6.30608      2.16035      6.12270        -0.052206     -0.003425      0.008999
O	      8.41991      4.38960      6.18195         0.044337      0.010094     -0.075725
O	      2.19106      4.47426      4.02268         0.047471     -0.051485      0.009645
O	      4.15256      6.65066      4.07866         0.083316     -0.059923     -0.012183
O	      4.22319      4.28890      6.12276        -0.020809     -0.025673      0.022803
O	      6.36726      6.48626      6.33741        -0.016865      0.017701     -0.192174
O	      6.31115      4.45982      8.25821        -0.019807     -0.008654     -0.040379
O	      8.35269      6.54879      8.19617         0.002809     -0.021967     -0.048442
O	      2.10706      6.49055      6.14167         0.010475      0.027908     -0.038625
O	      4.29081      8.66717      6.19269        -0.014065      0.021425     -0.094458
O	      4.31323      6.49978      8.22407         0.106993      0.052318     -0.058456
O	      6.40241      8.54137      8.21752        -0.046130     -0.022710     -0.014971
O	      6.44504      6.35562     10.10765        -0.045837      0.094429      0.031117
O	      8.50040      8.60627     10.15199        -0.005496      0.014456     -0.017927
