# total energy = -227.09119312 eV
 
CRYSTAL
PRIMVEC
0.024525 6.367183 6.326323 
6.367252 0.018561 6.332770 
4.251999 4.256419 0.005123 
PRIMCOORD
36 1
Li	      0.20059      6.27057      6.34603        -0.028296     -0.072020     -0.056185
Li	      2.24335      8.31785      6.34420         0.017573      0.005695     -0.089561
Li	      2.00616      0.10474      1.94471        -0.050107      0.054281     -0.066584
Li	      4.38782      6.20820      2.22901         0.052490     -0.072133     -0.093582
Li	      4.16970      4.40895      4.12805         0.075967     -0.074869      0.001338
Li	      4.36891      8.39685      4.43009        -0.018724      0.039694      0.071791
Li	      2.03985      4.39169      6.22787        -0.035405     -0.083461      0.065517
Li	      4.11939      6.48047      6.22355         0.099704      0.049536      0.006964
Li	      4.21286      4.29999      8.40916        -0.049289      0.078767     -0.051226
Sc	      4.22453      8.59604      8.28673         0.068588     -0.022515      0.132530
Mn	      6.42426      8.49179     10.53990        -0.036988      0.037968      0.046360
Mn	      6.36752      6.42312      8.42756         0.015954     -0.053099     -0.048794
V	      8.59259     10.49209     10.58992        -0.040664      0.179137      0.178751
V	      6.31944      4.27072      6.35679         0.027437      0.036906     -0.155109
V	      4.25978      2.19332      6.36553         0.047209     -0.039363     -0.226171
Co	      6.28990      6.43157      4.23217        -0.343481      0.066445     -0.304616
Cu	      2.38492      6.22393      4.42700        -0.080919     -0.168687     -0.501941
Ni	      2.20101      4.21286      2.15319        -0.112052      0.041933     -0.225705
O	      2.15870      6.37331      6.26260        -0.005215     -0.025637      0.317956
O	      2.12583      2.16402      2.28451         0.025590     -0.168454     -0.420646
O	      4.24077      4.23365      2.10463         0.138812     -0.024502      0.050461
O	      4.14975      1.99116      4.38060         0.643152     -0.015443      0.158542
O	      6.47649      4.36291      4.38656         0.035986     -0.468628      0.094420
O	      6.22336      2.30333      6.30821         0.056885      0.023511      0.107818
O	      8.37996      4.37260      6.28280         0.081431      0.001853     -0.026855
O	      2.11789      4.10599      4.16483         0.099553      0.645147      0.227208
O	      4.32980      6.38664      4.17829        -0.528146      0.015689      0.301493
O	      4.38967      4.11765      6.31031        -0.163948      0.090582     -0.042428
O	      6.46756      6.31117      6.20628        -0.110037      0.033012      0.497790
O	      6.41908      4.45078      8.20238        -0.131140      0.051406      0.124752
O	      8.40540      6.35477      8.23841        -0.057879      0.089416      0.103236
O	      4.23015      8.48182      6.37758         0.027627     -0.036960     -0.011468
O	      4.37534      6.41344      8.64204         0.014528     -0.028163     -0.084891
O	      6.37293      8.34385      8.46776         0.045906      0.028914     -0.085070
O	      6.24710      6.40683     10.58182         0.153224     -0.059656     -0.030408
O	      8.48691      8.72071     10.56658         0.064677     -0.156302      0.034313
