# total energy = -228.63025108 eV
 
CRYSTAL
PRIMVEC
0.012158 6.374759 6.234186 
6.222688 0.027279 6.219686 
4.162584 4.254454 0.003705 
PRIMCOORD
36 1
Li	      0.06656      0.05005      0.03962         0.033304      0.039029      0.012229
Li	      8.20344      2.14113      6.23629        -0.021094      0.012005     -0.032870
Li	      6.17222      4.27907      2.04209        -0.002039      0.002943     -0.008165
Li	      4.17191      6.29102      2.09841        -0.020533     -0.056097      0.000954
Li	      2.02953      2.15527      4.10467        -0.013227      0.024370      0.003406
Li	      4.13473      4.32404      4.08154        -0.015593      0.047265      0.050347
Li	      8.31414      6.39096     10.30892         0.022869     -0.001020      0.000188
Li	      8.27314      8.43187      8.35361        -0.015688     -0.126204      0.000983
Li	      6.27467      6.43013      8.34215        -0.011451     -0.008788      0.008123
Sc	      8.31689      6.40460      6.31479         0.088499     -0.017969      0.005194
Mn	      6.22044      4.23178      6.31711        -0.103020     -0.015169      0.031509
Mn	      4.11209      6.34954      6.27128         0.049116      0.042412      0.013529
V	      0.03931      4.19894      4.10091        -0.184542      0.085961      0.110453
V	      4.11542      2.24227      2.05999         0.112016     -0.086940      0.027531
V	      8.28831     10.60947     10.31871         0.036286      0.032151     -0.053257
Co	      6.23074      8.53387      6.24044         0.085451     -0.020429     -0.013981
Ni	      6.31628      8.46665     10.35441         0.014691     -0.068294     -0.025537
Ni	      2.15869      4.27914      2.10520        -0.049342      0.044059     -0.010818
O	      2.29018      2.17702      2.05397        -0.159521     -0.063700     -0.005221
O	      4.16989      4.17038      2.13110         0.173306      0.101815     -0.031211
O	      4.22078      2.02640      4.06088        -0.109932     -0.008308      0.007647
O	      6.42461      4.22145      4.13659        -0.101929      0.096984     -0.036375
O	      6.21542      2.14157      6.15102        -0.079868     -0.063980      0.150201
O	      8.30551      4.31802      6.12617         0.072173     -0.003295      0.071974
O	      1.94918      4.29678      4.27235         0.246559     -0.000552      0.033150
O	      4.13931      6.60899      4.22461         0.025911     -0.088891      0.028011
O	      4.05770      4.25596      6.20163        -0.083065     -0.071010     -0.012078
O	      6.11131      6.47721      6.22047         0.015687      0.032069     -0.009573
O	      6.31855      4.26414      8.43289        -0.084974     -0.020331     -0.089983
O	      8.31470      6.34822      8.28649        -0.001395      0.152725     -0.058042
O	      2.23138      6.21701      6.23881        -0.093969      0.004933      0.017985
O	      4.27824      8.53698      6.24869         0.016806      0.107469      0.032760
O	      4.15460      6.52067      8.34088         0.008713     -0.013931     -0.130161
O	      6.08967      8.50637      8.23896         0.084349      0.000566     -0.092570
O	      6.07612      6.27602     10.39069         0.040195     -0.061618     -0.001179
O	      8.37711      8.62354     10.34173         0.025251     -0.030228      0.004848
