# total energy = -229.84358972 eV
 
CRYSTAL
PRIMVEC
0.003871 6.220974 6.229413 
6.269799 0.001388 6.231749 
4.215437 4.184689 -0.034847 
PRIMCOORD
36 1
Li	     10.47030      4.25607      6.25504        -0.024287     -0.018367      0.014112
Li	      2.06452      6.20844      8.26426        -0.000904      0.076868     -0.021788
Li	      6.27494      2.11485      4.20241         0.008176      0.039452      0.047602
Li	      6.27970      2.09505      8.22663         0.001024     -0.028060     -0.005947
Li	      6.31599      6.26021      4.27264         0.022282     -0.047856     -0.065389
Li	      8.32645      6.24020      6.27160         0.055160     -0.069234      0.040148
Li	      6.34473      4.20551      6.26069         0.009791     -0.066456      0.002702
Li	      4.35938      6.27211      6.26053        -0.049888      0.017958      0.002734
Li	      6.25974      6.24600      8.14447        -0.032367     -0.017047      0.058923
Sc	      4.13475      0.11611      4.13118        -0.035751     -0.027017     -0.063950
Mn	      8.29452      2.11076      6.26936         0.221492     -0.176166     -0.160945
Mn	      4.13424      4.19612      8.14068         0.111383      0.037565     -0.036026
V	      4.36628      4.17298      4.18332         0.032245      0.077898     -0.255056
V	      4.24722      8.26844      4.12793        -0.138224     -0.035017      0.393531
V	      8.32441      6.19981     10.35181         0.061536     -0.005675      0.163520
Co	      4.19904      8.30934      8.24351        -0.070575      0.005846     -0.045048
Co	      8.34242      4.14858      8.30265        -0.062313      0.371607     -0.454147
Cu	      6.28391      8.20104      6.27675         0.037756      0.129671     -0.024445
O	      6.35961      6.28917      6.19081         0.028914     -0.022974      0.103081
O	      2.22029      2.12399      1.94005         0.058425     -0.590198     -0.112438
O	      4.07538      4.05102      2.21641         0.601124     -0.035996      0.195197
O	      4.24739      2.15546      3.98108         0.014267     -0.089753      0.064179
O	      6.25777      4.21770      4.06137         0.099798      0.017315     -0.012671
O	      6.44654      2.06666      6.26222        -0.121139      0.008203      0.001884
O	      8.37649      4.04514      6.16294        -0.047069      0.284560      0.149924
O	      2.13540      4.23975      4.25428         0.062357     -0.145866     -0.031055
O	      4.10700      6.19093      4.11575         0.133029      0.048143     -0.020315
O	      4.30067      4.12413      5.98975         0.123643     -0.016416      0.196304
O	      6.33944      4.12428      8.45177        -0.516467     -0.096034     -0.046522
O	      8.37043      6.26476      8.48863        -0.001363      0.099574     -0.015869
O	      2.09404      6.34652      6.03316        -0.065349     -0.055307      0.132809
O	      4.01873      8.31738      6.22865        -0.062931     -0.021531     -0.041269
O	      4.16736      6.30322      8.30513         0.078743      0.045842     -0.091706
O	      6.16941      8.35431      8.18911        -0.214764     -0.057974     -0.028988
O	      6.32811      6.08406     10.40843        -0.143323      0.287176     -0.030986
O	      8.41078      8.28098     10.42532        -0.174430      0.075267     -0.002090
