# total energy = -231.06613613 eV
 
CRYSTAL
PRIMVEC
0.001507 6.484109 6.188627 
6.284994 0.009510 6.180416 
4.197610 4.324724 -0.000989 
PRIMCOORD
36 1
Li	      8.31037      8.57828     12.36625         0.009200     -0.008279     -0.001528
Li	      6.22968      2.27236      4.25020         0.027206      0.014940      0.020626
Li	      6.32224      6.40279      4.20527        -0.016801     -0.000116      0.069581
Li	      4.29797      4.26747      4.23472         0.058552     -0.057651      0.041670
Li	      4.27373      2.12178      6.06845        -0.033689      0.007376      0.008753
Li	      6.35710      4.21286      6.09243         0.028860     -0.008965      0.053811
Li	      2.12305      6.49936      4.26579        -0.022169     -0.005479     -0.028800
Li	      2.10072      4.47299      6.08458        -0.014936      0.010048     -0.035391
Li	      4.02413      6.48340      6.09599         0.021923      0.000589     -0.052095
Sc	      4.12804      2.23980      2.08448         0.047885      0.157955     -0.000426
Mn	      8.36170      4.36051      4.21154        -0.067886     -0.025169      0.115622
Mn	      0.04487      2.12329      2.06241        -0.060087      0.053745      0.003310
V	      4.23443      8.58307      4.20048         0.063474     -0.017680     -0.072358
V	      6.30662      6.50318      8.07985         0.088164     -0.089369     -0.147995
V	      4.14511      4.30761      8.10497         0.193441      0.022763     -0.043221
Co	      6.34156      6.55697     12.34364         0.026073      0.019472     -0.043694
Co	      8.40487      4.36718      8.19007        -0.194561     -0.061599      0.013672
Ni	      2.12166      6.51844      8.24220        -0.146189     -0.111015      0.038730
O	      2.07818      2.13034      2.08280         0.001661      0.225718     -0.001576
O	      4.18721      4.32321      2.19951         0.123158     -0.095317     -0.086160
O	      4.21689      2.13426      4.08146         0.021367      0.044569     -0.028162
O	      6.47722      4.29950      4.10681        -0.127322     -0.036203      0.018935
O	      6.28602      2.14469      6.34684        -0.007465     -0.138978      0.011944
O	      8.43992      4.32080      6.20892         0.132572     -0.016980     -0.037236
O	      1.84261      4.38993      4.03552         0.107841      0.031371      0.024567
O	      4.17436      6.63848      4.01500         0.026732      0.004839      0.006767
O	      4.18681      4.35238      6.34439         0.029970      0.062995     -0.008800
O	      6.29675      6.46294      6.34632        -0.027231      0.032520      0.135891
O	      6.23160      4.41417      8.25391        -0.160412      0.123612     -0.034205
O	      8.31542      6.65211      8.27499         0.070368     -0.158769     -0.028578
O	      2.04550      6.45595      6.25290        -0.132073      0.016711     -0.091956
O	      4.19113      8.63225      6.10465        -0.056836      0.047271      0.130308
O	      4.25979      6.43200      8.23201         0.030399     -0.003171      0.040367
O	      6.36560      8.51920      8.26821        -0.092545     -0.028719     -0.000734
O	      6.13750      6.37688     10.17156         0.137227      0.011399      0.041493
O	      8.55725      8.69266     10.11735        -0.085874     -0.024434     -0.033129
