# total energy = -233.18161780 eV
 
CRYSTAL
PRIMVEC
-0.005567 6.353092 6.209288 
6.359865 0.019339 6.184036 
4.267385 4.246252 -0.014743 
PRIMCOORD
36 1
Li	      0.08688      6.34037      6.26732        -0.029179     -0.021965     -0.033446
Li	      4.21519      6.30538     10.25196         0.025425     -0.015025      0.062613
Li	      6.45892      8.33213     10.28303        -0.015091     -0.074563     -0.010091
Li	     10.48529      6.41708      8.20347        -0.019563      0.017461     -0.014976
Li	      8.39390      4.36094      8.20541        -0.020845     -0.015125     -0.009665
Li	      8.44088      6.47758     10.15655        -0.017750      0.025830     -0.039843
Li	      4.16497      6.40785      6.28779        -0.004564      0.025676      0.006090
Li	      8.46716      8.48255      8.25867         0.000028      0.017503      0.019060
Li	      6.51324      6.40917      8.26302         0.038247     -0.016553      0.040476
Sc	      4.21087      4.32747      4.07226        -0.002847     -0.037485      0.043335
Mn	      2.09730      2.09362      0.00681         0.013832      0.039255     -0.058511
Mn	      8.57027      6.30075      6.23392         0.060518     -0.006710      0.067311
V	      2.08499      2.16154      4.10070         0.048609     -0.053172     -0.012445
V	      6.34233      4.23764      6.31288        -0.053463     -0.045827      0.012159
V	      6.28445      4.41584     10.26387         0.014960      0.207438      0.018815
Co	      6.43063     10.51545      8.24466         0.147221      0.143551      0.048201
Co	      4.33144      8.39529      8.27087         0.162460      0.044908     -0.113023
Co	      6.37955      8.56137      6.26211         0.033833     -0.057607     -0.105246
O	      2.18015      2.08516      2.22901         0.069417      0.082339      0.029669
O	      4.45827      4.13843      2.06488         0.172019      0.011280      0.013454
O	      4.14156      2.17177      4.23421        -0.056166     -0.002740      0.122656
O	      6.30932      4.39604      4.21382        -0.061954      0.030488     -0.111282
O	      6.29113      2.17155      6.16486         0.021660     -0.082781      0.018570
O	      8.30874      4.09685      6.19192         0.111930     -0.054512      0.001790
O	      2.07591      4.16827      4.13341         0.000735     -0.062482     -0.042321
O	      4.39751      6.45975      4.10668         0.080965     -0.041117     -0.040858
O	      4.30235      4.28256      6.16496        -0.037707      0.064487     -0.019844
O	      6.49205      6.35634      6.05998        -0.017991      0.114617     -0.069479
O	      6.33037      4.26265      8.27861        -0.012540     -0.003578      0.037187
O	      8.52613      6.30581      8.10863        -0.005019      0.011500     -0.042701
O	      2.11326      6.47353      6.27319         0.022676     -0.006184      0.012706
O	      4.29184      8.50262      6.05535        -0.106988     -0.055869      0.024480
O	      4.04151      6.40825      8.28122        -0.352678     -0.061013      0.116726
O	      6.38748      8.52002      8.27201        -0.142654     -0.029936      0.030242
O	      6.39964      6.19182     10.27697        -0.016312     -0.087874     -0.009814
O	      8.66721      8.45152     10.35467        -0.051228     -0.004215      0.008002
