# total energy = -225.56738954 eV
 
CRYSTAL
PRIMVEC
0.041991 6.098254 6.434507 
6.415956 -0.002338 6.478734 
4.278534 4.096870 -0.002419 
PRIMCOORD
36 1
Li	      2.14496      2.01041      0.07881        -0.012627     -0.011794     -0.010526
Li	      6.48495     10.14753      8.61329        -0.010314     -0.001132      0.012294
Li	      4.26527      2.04383      2.21378        -0.021693      0.008509      0.004309
Li	      6.30009      2.14158      4.26422        -0.028375     -0.028811     -0.046563
Li	      4.42261      4.02800      4.51383        -0.021138      0.077030      0.009028
Li	      6.19265      4.10835      6.38592         0.022866     -0.002854     -0.022274
Li	      2.37272      4.06694      6.45824        -0.055813      0.029263     -0.046407
Li	      4.31553      5.94666      6.55454         0.001065      0.079227      0.063910
Li	      4.25960      4.12586      8.37987        -0.012458      0.000096      0.007693
Sc	      8.45120      4.10160      4.31273         0.072018     -0.115744     -0.040305
Mn	      6.44205      2.03831      8.57327         0.015723     -0.008905      0.083636
Mn	      8.56156      4.04937      8.58453         0.050858     -0.105103     -0.023261
V	      4.35862     10.07330      6.45989         0.063922      0.002878     -0.112039
V	      2.19312      6.13586      4.36502         0.030339     -0.033224      0.082873
V	      6.36594      6.23776      8.46619        -0.059273     -0.099625      0.160296
Cu	      2.19676      2.03561      4.34572        -0.154670      0.101173      0.042100
Ni	      4.27768      2.11391      6.41170         0.042468     -0.103588     -0.003239
Ni	      4.32172      8.14778      4.29931        -0.026416      0.004631      0.022324
O	      2.06179      2.16509      2.10222        -0.085530      0.015743     -0.138139
O	      4.20215      4.06893      1.96538        -0.066828     -0.114470      0.067828
O	      4.20872      2.03140      4.33649         0.184383      0.101300     -0.067911
O	      6.46462      4.15944      4.27825        -0.056540     -0.169153      0.027617
O	      6.39600      1.93277      6.64504         0.097825      0.050756     -0.012977
O	      8.73976      4.11892      6.42343        -0.143453     -0.111541     -0.134246
O	      2.10783      4.19888      4.28680         0.156748     -0.019883      0.036754
O	      4.20505      6.11834      4.08958         0.002173     -0.127008     -0.150633
O	      4.29507      4.05032      6.46375         0.055959      0.266154      0.063010
O	      6.47496      6.10967      6.62265        -0.084202     -0.030855      0.018029
O	      6.54041      4.19224      8.70703         0.058975     -0.006279     -0.071123
O	      8.54079      6.01657      8.70030         0.084483      0.042538     -0.014962
O	      2.06514      6.11694      6.30217         0.061664     -0.027796      0.008017
O	      4.30858      8.29136      6.36684         0.015921     -0.173564      0.057587
O	      4.46055      6.09329      8.64755        -0.044101      0.033462      0.090150
O	      6.48352      7.98784      8.67257        -0.005638      0.236624      0.024782
O	      6.54129      6.13101     10.83441        -0.080770      0.147126      0.014542
O	      8.63620      7.99012     10.75745        -0.047550      0.094823     -0.002174
