# total energy = -226.36334985 eV
 
CRYSTAL
PRIMVEC
0.013732 6.415637 6.286866 
6.277740 0.036612 6.264586 
4.214773 4.291530 -0.005388 
PRIMCOORD
36 1
Li	      6.28565      0.06289      6.26986        -0.030323      0.025048      0.009071
Li	      4.34859      8.41739      8.39343         0.002629      0.049445     -0.007684
Li	      4.20144      0.14007      4.09379         0.077223      0.025595      0.069480
Li	      6.23233      2.24050      4.10162         0.027774      0.005713      0.055133
Li	      6.30995      6.36478      4.33416         0.012924      0.023958     -0.082466
Li	      0.04247      4.25144      4.19016         0.010175     -0.020237     -0.019001
Li	      6.24293      8.45081      6.34258         0.001542      0.060321     -0.057490
Li	      4.35378      6.46131      6.31903        -0.017525      0.014894     -0.010151
Li	      6.25465      6.60520      8.25009         0.007189      0.035590      0.058600
Sc	      4.14300      4.44673      8.33191         0.024624      0.054330      0.014455
Mn	      4.21124      6.37474      2.08949        -0.057589     -0.019853      0.056073
Mn	      2.08322      4.22888      2.11509        -0.002091     -0.027865     -0.029268
V	      2.37109      8.51431      6.25103        -0.052703      0.069223     -0.046044
V	      4.23382      4.21716      4.25076        -0.162838      0.153849     -0.036344
V	      8.16521      6.46428     10.47067         0.099397      0.031699      0.022258
Cu	      2.19951      6.41371      8.37049        -0.054102     -0.007769     -0.012909
Cu	      8.37116      6.44361      6.25730         0.052754     -0.017409      0.005576
Ni	      6.31875      4.35907      6.25652         0.084440     -0.117248      0.066421
O	      2.13132      1.98480      1.91975         0.045197      0.034384      0.117810
O	      4.06050      4.36315      2.18740        -0.026961     -0.059291     -0.072124
O	      4.15215      2.39382      4.19035        -0.004545     -0.108217      0.007499
O	      6.13306      4.34155      4.20739         0.031493      0.006236     -0.121786
O	      6.20981      2.18572      6.41902        -0.052364     -0.055339     -0.121881
O	      8.37674      4.10306      6.39718         0.029772     -0.112827     -0.131860
O	      2.13148      4.40699      4.09777         0.022451     -0.032562      0.114574
O	      4.08198      6.26688      4.04271         0.024903      0.011193      0.083080
O	      4.24098      4.43592      6.20517        -0.070927      0.189060      0.049457
O	      6.45477      6.39735      6.27853        -0.077191      0.077305     -0.013357
O	      6.38086      4.12975      8.38965        -0.078063      0.010082      0.045838
O	      8.34065      6.52023      8.44418        -0.055327     -0.023197     -0.025150
O	      2.09682      6.58616      6.12942        -0.043121     -0.104465      0.068188
O	      4.11187      8.55474      6.22161         0.235819     -0.043419      0.011243
O	      4.30143      6.42040      8.41491         0.150331      0.026087      0.003821
O	      6.34611      8.74337      8.34008        -0.051743     -0.115705      0.011816
O	      6.42025      6.44608     10.47410        -0.138848     -0.018354     -0.027444
O	      8.38773      8.46879     10.52003         0.035628     -0.020256     -0.055434
