# total energy = -230.48819652 eV
 
CRYSTAL
PRIMVEC
0.035135 6.398213 6.225308 
6.314506 0.022298 6.238278 
4.214947 4.279139 0.009825 
PRIMCOORD
36 1
Li	      0.16420      6.31324      6.20425        -0.000230     -0.023569     -0.020409
Li	      2.14876      8.43573      6.16445        -0.005182     -0.027428      0.182795
Li	      6.46499      8.49920     10.37995        -0.203513     -0.115966      0.020098
Li	      2.13079      4.26053      2.28057        -0.014983     -0.015067      0.036512
Li	      1.99035      2.38920      4.15126         0.020970      0.047862      0.005145
Li	      4.03597      4.41550      4.13698         0.030796     -0.021141     -0.064604
Li	      4.32595      8.50957      4.27993         0.096107      0.129650      0.060799
Li	      2.03277      4.39875      6.12715        -0.065378     -0.000609      0.056356
Li	      4.16964      6.43014      6.12903         0.032462      0.035973     -0.013421
Sc	      4.22557      2.15601      6.03270        -0.108819     -0.165203     -0.168425
Mn	      6.31036      4.28405      2.11251        -0.223491      0.159805      0.112728
Mn	      4.22502      6.42477      2.13718         0.316526     -0.205680     -0.067539
V	      4.11659      2.22357      2.02164        -0.044724      0.246505      0.260350
V	      6.35489      4.30670      6.11235         0.355157      0.191070      0.039441
V	      6.38657      6.41420      8.38063        -0.492118      0.113249     -0.016239
Fe	      8.42854      8.57044      8.40930         0.244560      0.023019      0.144775
Co	      8.47585     10.60854     10.40628         0.072976      0.341136     -0.115275
Cu	      2.16640      6.35728      4.29468        -0.244237     -0.210547      0.271601
O	      2.10505      4.39286      4.23075        -0.008697     -0.070158     -0.006416
O	      2.10211      2.13930      2.13334         0.019085      0.107926      0.030702
O	      4.26357      4.17845      2.10019        -0.185003     -0.091128      0.019626
O	      4.24234      2.08097      4.00014        -0.010998      0.033206      0.077989
O	      6.38886      4.18343      4.15859         0.101752     -0.139012      0.200534
O	      6.30342      2.27864      6.37505         0.079857     -0.021009     -0.144689
O	      8.26392      4.32313      6.16393         0.077396     -0.056822     -0.100671
O	      4.18342      6.43888      4.00205         0.078707      0.079310      0.120790
O	      4.45046      4.25754      6.24512        -0.371913      0.076970      0.435390
O	      6.37014      6.29336      6.26794        -0.027804     -0.037501     -0.449721
O	      6.36104      4.48005      8.16813        -0.975669     -1.825432      0.054953
O	      8.40906      6.43130      8.17978         1.251142      1.102965     -0.098325
O	      2.15581      6.38433      6.45754         0.069232     -0.001858     -0.410407
O	      4.20494      8.52126      6.48643        -0.034914     -0.081133     -0.307284
O	      4.31450      6.47148      8.39142        -0.927627     -1.018269      0.027335
O	      6.25654      8.34395      8.27099         1.099855      1.561721     -0.020809
O	      6.36822      6.40100     10.27604        -0.069394     -0.136569      0.798584
O	      8.46506      8.46723     10.36849         0.068111      0.013735     -0.952267
