# total energy = -234.76395705 eV
 
CRYSTAL
PRIMVEC
0.037730 6.290395 6.550403 
6.160753 0.044425 6.543236 
4.123965 4.205166 0.013286 
PRIMCOORD
36 1
Li	     10.19821      4.27008      6.62638        -0.005580     -0.034662      0.003067
Li	      4.07785      0.13170      4.35696        -0.035521      0.007944      0.005765
Li	      6.09682      2.08388      4.36392        -0.007724      0.010435      0.046591
Li	      4.12858      6.22868      2.17135        -0.054297      0.024556      0.019006
Li	      8.30687      4.25254      8.63397        -0.025047      0.018874     -0.003851
Li	      4.16615      4.13088      4.28566        -0.020335      0.002291     -0.001357
Li	      4.19329      2.07466      6.37176         0.009111     -0.006403     -0.107750
Li	      4.16865      6.28091      6.65024        -0.017353      0.030773     -0.004274
Li	      4.18011      4.30108      8.72480         0.057015      0.004887      0.000995
Sc	      2.21022      4.16233      6.62215        -0.002587      0.008935     -0.144838
Mn	      2.07119      2.11669      4.34873         0.283477      0.060517     -0.023082
Mn	      6.15550      4.23538      6.63144        -0.008383     -0.029181     -0.058342
V	      8.17082      2.13009      6.54159         0.215052      0.030889     -0.223102
V	      6.15375      4.28335     10.85086        -0.009809      0.000117      0.092581
V	      8.26154      6.34174     10.80718         0.067710      0.015282      0.203212
Fe	      6.15600      4.19554      2.31636         0.092068      0.023153     -0.062748
Co	      4.09319      2.14438      2.25939        -0.118864      0.027696     -0.641174
Co	      6.13078      6.32897      8.78737         0.064067     -0.107310     -0.013242
O	      2.01598      2.01331      1.98650         0.315811      0.107200      0.130359
O	      4.21199      4.15666      2.11883         0.011177      0.002658      0.055092
O	      3.97862      2.13440      4.31857        -0.211015     -0.044398      0.503935
O	      6.14502      4.37103      4.29520         0.020667     -0.012943     -0.005345
O	      6.28674      2.22529      6.51749         0.049864      0.005787      0.026513
O	      8.09688      4.12073      6.55810        -0.034238     -0.015206      0.044196
O	      2.09055      4.22828      4.46263        -0.038075     -0.005462      0.027001
O	      4.17162      6.44426      4.36931        -0.048333     -0.062314     -0.009090
O	      4.22529      4.18215      6.60689         0.001921      0.002395      0.036664
O	      6.22099      6.27459      6.57005        -0.031152     -0.015410      0.220542
O	      6.19686      4.30942      8.85543        -0.024757     -0.061015     -0.011073
O	      8.26339      6.32630      9.03861        -0.042374      0.014987     -0.083256
O	      2.10865      6.31873      6.39851        -0.015320     -0.005565      0.103884
O	      4.02538      8.41378      6.44947        -0.133152     -0.007048     -0.134244
O	      4.07754      6.38329      8.71868         0.004216     -0.034920      0.073740
O	      6.26872      8.45537      8.70155        -0.313083      0.020077      0.100241
O	      6.28677      6.27600     10.97150         0.052923      0.038633     -0.177971
O	      8.23593      8.30318     11.05256        -0.048084     -0.016248      0.011353
