# total energy = -230.11626083 eV
 
CRYSTAL
PRIMVEC
0.020876 6.348771 6.330172 
6.299875 -0.006833 6.357958 
4.187422 4.238429 0.008283 
PRIMCOORD
36 1
Li	      4.25542      8.47993      8.47451        -0.017974     -0.014019      0.021961
Li	      6.30218      8.48243     10.46146        -0.025537     -0.031407      0.005801
Li	      4.24864      6.27795      2.15649        -0.011997     -0.026335     -0.004397
Li	      2.17230      4.17318      2.22503         0.054241     -0.013224     -0.002025
Li	      6.23664      6.36918      4.25519         0.005310      0.030827      0.014313
Li	      4.20092      4.30952      4.24805         0.021289      0.017374     -0.000069
Li	      4.33737      6.25308      6.32911        -0.009911      0.036293     -0.047331
Li	      4.12591      4.27874      8.41710         0.034317      0.000085      0.010053
Li	      6.23663      6.45605      8.38733        -0.033868      0.054491      0.023606
Sc	      8.33954      6.42084      6.51278         0.072117     -0.047192     -0.044716
Mn	      4.18387      4.20781      0.04816        -0.067494      0.022892     -0.097407
Mn	      6.29249     10.53749      8.45903         0.020549     -0.036134      0.078359
V	      6.36247      4.18759     10.39970         0.005150      0.085942      0.089391
V	      4.12129      0.07183      4.17549         0.139898      0.014214      0.116081
V	      8.46048      6.35917     10.48178        -0.073398      0.035842     -0.042377
Fe	      2.06266      2.09575      0.10343         0.038221      0.074166     -0.221152
Cu	      6.22734      4.29971      6.33307         0.010071     -0.013025      0.109714
Ni	      2.14473      4.23653      6.35331        -0.039399      0.048378     -0.025584
O	      2.12696      1.95664      2.01417        -0.013045     -0.020296      0.193857
O	      4.29177      4.19003      1.98898         0.029568     -0.013685      0.157768
O	      4.24690      1.85619      4.32285        -0.042183      0.011326      0.005797
O	      6.40291      4.18302      4.26631        -0.151247     -0.009694     -0.072452
O	      6.33228      1.90865      6.36840        -0.014537      0.006735      0.002852
O	      8.24579      4.15850      6.31047         0.203271     -0.017569      0.046739
O	      2.01971      4.28495      4.25247         0.057260      0.029365     -0.092887
O	      4.12786      6.49304      4.21199         0.061945     -0.040260     -0.016078
O	      4.28043      4.20321      6.30173        -0.135421      0.036252     -0.004388
O	      6.32460      6.45944      6.39879        -0.042837     -0.069810     -0.040018
O	      6.31147      4.25462      8.64875         0.000242      0.011141     -0.151982
O	      8.38475      6.35255      8.53997         0.011499      0.011289      0.010945
O	      2.17291      6.40545      6.18544        -0.015763     -0.016872      0.057469
O	      4.15024      8.60549      6.19432         0.012417     -0.127384     -0.012745
O	      4.10515      6.31839      8.62865        -0.037710     -0.009915     -0.142106
O	      6.29961      8.61831      8.39367        -0.012424      0.048915      0.129784
O	      6.29769      6.26597     10.67085         0.018006     -0.017372     -0.048216
O	      8.50903      8.56141     10.66278        -0.050624     -0.051334     -0.008563
