# total energy = -229.51112598 eV
 
CRYSTAL
PRIMVEC
0.038978 6.216593 6.321930 
6.538560 0.016940 6.343353 
4.354809 4.154537 0.015437 
PRIMCOORD
36 1
Li	     10.78075      4.19405      6.43922         0.037426      0.002294     -0.008643
Li	      6.50615      4.16262      2.20787         0.003079      0.009708      0.026063
Li	      8.65524      4.21481      4.38418        -0.000692      0.037149     -0.009753
Li	      6.46912      2.08625      8.31566        -0.066171      0.035293     -0.016574
Li	      2.31990      4.14270      2.03027         0.059473     -0.004867      0.012629
Li	      8.54088      6.06450      6.42107        -0.057736     -0.013636     -0.029535
Li	      6.62744      4.23790      6.38002        -0.002089     -0.060027      0.006086
Li	      6.63399      8.21648      6.40241        -0.023756      0.103155     -0.005593
Li	      6.56897      6.24543      8.30546        -0.009020      0.026598      0.032666
Sc	      6.54967      2.08844      4.33093        -0.045470     -0.026775     -0.041577
Mn	      8.69919      2.17775      6.43769        -0.067749      0.002993     -0.035133
Mn	      0.06726      4.12413      4.18569         0.007941     -0.131543      0.013588
V	      4.30885      2.01415      2.15426         0.069301     -0.160802      0.077687
V	      8.72888      6.18308     10.49559         0.111921      0.028302     -0.051096
V	      4.40006      4.18757      8.33047        -0.192079      0.076008      0.153521
Fe	      4.41590      4.16524      4.26121        -0.117081      0.074618      0.106618
Cu	      6.55573      6.18739      4.28048         0.058569      0.068872     -0.068102
Cu	      4.44373      6.24015      6.29518         0.050181      0.074718      0.033161
O	      6.41003      6.27322      6.21129        -0.006365      0.004825      0.134899
O	      2.38889      2.03895      2.26576        -0.024990      0.003896     -0.073345
O	      4.43692      3.87673      2.20834         0.017729      0.142633     -0.098414
O	      4.46886      2.11600      4.22043         0.199725      0.004672      0.032745
O	      6.38332      4.17790      4.28574         0.100600     -0.102446      0.010826
O	      6.76594      2.05582      6.37137         0.075001      0.003475      0.047150
O	      8.72209      4.06913      6.39862         0.004084     -0.019063      0.030316
O	      2.27571      4.23370      4.15957         0.049305     -0.069064      0.012829
O	      4.18577      6.13212      3.98043        -0.148048      0.083638     -0.156857
O	      4.29412      4.23964      6.35147        -0.022826     -0.250857     -0.083286
O	      6.19463      4.22142      8.40957         0.082530      0.001505     -0.065205
O	      8.68109      6.34727      8.53735        -0.019711      0.050730     -0.111864
O	      2.37178      6.38602      6.05240        -0.002272     -0.006856      0.123511
O	      4.23772      8.29269      6.46818        -0.039427     -0.042935     -0.021156
O	      4.42502      6.35692      8.57496         0.044328     -0.063600      0.094577
O	      6.72742      8.35110      8.47863         0.004557     -0.022566     -0.031229
O	      6.78099      6.21846     10.60138        -0.090525      0.073357     -0.009514
O	      8.71410      8.26446     10.42053        -0.039741      0.066596     -0.031994
