# total energy = -231.45138900 eV
 
CRYSTAL
PRIMVEC
0.013448 6.377310 6.480553 
6.277108 0.000126 6.493598 
4.193649 4.269448 -0.009145 
PRIMCOORD
36 1
Li	      2.31014      6.31042      8.69254        -0.045519     -0.002351      0.069161
Li	      4.22097      8.26462      8.82695         0.038907      0.025690      0.113282
Li	      4.09427      0.10868      4.13290        -0.007230     -0.038935     -0.082242
Li	      6.17411      2.23803      4.11852         0.012238      0.027438     -0.109617
Li	      4.23437      4.18934      4.29994        -0.065304      0.005491      0.046810
Li	      4.25126      8.47268      4.33353         0.012027     -0.013117      0.009395
Li	      4.24132      6.34028      6.86271        -0.010218     -0.034507      0.019928
Li	      4.15690      4.49601      8.67779        -0.017065      0.009071      0.086738
Li	      6.08148      6.45659      8.68824        -0.007833      0.033734      0.055128
Sc	      4.14404      2.15404      6.37345        -0.075898      0.022850     -0.010007
Mn	      6.18357      4.34882      6.42683        -0.018672      0.062029      0.014161
Mn	      2.16154      6.35448      4.24868         0.046797     -0.022109     -0.104499
V	      6.32787      6.33302     12.86354        -0.024651      0.046374      0.230039
V	      2.20322      8.47268      6.38964        -0.015044     -0.049937      0.013068
V	      0.04115      2.10615      2.15008        -0.002846      0.141614      0.101121
Fe	      2.10381      4.22967      2.21326        -0.038889     -0.137234     -0.171816
Fe	      6.30036      8.47733      6.78510        -0.004536      0.074881     -0.231268
Cu	      6.26504      6.39359      4.32039         0.024974     -0.034920     -0.029436
O	      4.19145      6.36767      8.73686         0.020310     -0.001306      0.000003
O	      2.09432      2.21227      1.84014         0.102193     -0.124328     -0.179214
O	      4.12252      4.38501      1.87049         0.130671     -0.004313     -0.000882
O	      4.11124      2.15130      4.39499         0.182408      0.006242     -0.056515
O	      6.22956      4.37737      4.55812        -0.033529     -0.096658      0.056475
O	      6.35152      2.06951      6.52282         0.012738     -0.005280     -0.014726
O	      8.41705      4.18871      6.50397         0.036596     -0.010123     -0.048270
O	      2.08941      4.19328      4.15408        -0.029706      0.143574      0.198356
O	      4.26890      6.40842      4.04671        -0.000929     -0.058236     -0.225378
O	      4.12463      4.21674      6.50561         0.060110      0.030766     -0.020029
O	      6.29246      6.47774      6.60883        -0.054521     -0.016950      0.141755
O	      6.36916      4.12505      8.41550        -0.188005     -0.012684     -0.081313
O	      8.43268      6.23855      8.59722         0.043203      0.088287     -0.045102
O	      2.04352      6.39979      6.48736         0.032969     -0.074956      0.069395
O	      4.21496      8.64009      6.45477        -0.018486      0.013238     -0.028157
O	      6.29107      8.54890      8.59816        -0.058601      0.038312      0.445641
O	      6.32190      6.40913     11.08865        -0.043045      0.021974     -0.226647
O	      8.42268      8.46087     11.08880         0.004384     -0.053623     -0.005335
