# total energy = -232.80423193 eV
 
CRYSTAL
PRIMVEC
-0.007542 6.469044 6.330320 
6.291168 0.002561 6.321182 
4.184131 4.296686 0.011010 
PRIMCOORD
36 1
Li	      6.32560     10.70881      8.45860         0.005723     -0.032146      0.025813
Li	      4.22116      6.48031     10.52579         0.060507      0.035246     -0.018219
Li	      6.28494      8.55118     10.51327        -0.041252     -0.065571     -0.006638
Li	      8.29699      4.43201      8.37504        -0.010741      0.049873     -0.056283
Li	      8.30076      6.41184      6.40002        -0.044787     -0.005584     -0.011224
Li	      6.32586      4.34625      6.40788        -0.023352      0.011440      0.041042
Li	      8.28216      6.49259     10.46243        -0.008527      0.040674     -0.001623
Li	      8.34225      8.54643      8.47724        -0.013303     -0.030985     -0.011096
Li	      6.40548      6.42064      8.42130        -0.005943     -0.016907     -0.052105
Sc	     10.33685      6.55530      8.44717         0.006200      0.011664     -0.032143
Mn	      6.27616      0.05589      6.29077         0.005934     -0.036283      0.086238
Mn	      6.32988      4.44361     10.41733         0.046842      0.012608     -0.042184
V	      8.34975      2.20823      6.23716        -0.127151     -0.020597      0.115200
V	      4.19151      8.55441      8.46364         0.006577     -0.072738     -0.050357
V	      4.27972      4.25169      4.20598        -0.134091     -0.085402     -0.157433
Fe	      6.32584      8.54396      6.40798         0.047780      0.016695     -0.171759
Fe	      4.20321      6.39718      6.42041        -0.007781      0.090644     -0.013479
Ni	      2.11629      2.15254      4.21606         0.026379      0.023579     -0.059238
O	      2.15181      2.11744      1.99232         0.083169     -0.000452     -0.048486
O	      4.16348      4.21156      2.13226         0.017458      0.079702     -0.010319
O	      4.16156      2.29036      4.19094         0.158034     -0.138138      0.045631
O	      6.07456      4.36109      4.23613         0.069662     -0.078109      0.006593
O	      6.42213      2.18520      6.37069         0.027704      0.006413     -0.032579
O	      8.50211      4.13821      6.32393         0.041012     -0.010723     -0.002733
O	      2.25201      4.27086      4.32305        -0.028614      0.071599      0.005059
O	      4.21563      6.34965      4.26006        -0.091853     -0.023181     -0.004551
O	      4.12257      4.40363      6.23944         0.026517     -0.054990     -0.022718
O	      6.20125      6.54284      6.27775         0.058591     -0.028791      0.116211
O	      6.27436      4.26439      8.41794        -0.012388      0.009032     -0.010711
O	      8.39464      6.45762      8.42287        -0.027578      0.034162      0.002842
O	      2.05298      6.50685      6.33500        -0.034925     -0.026220      0.006564
O	      4.18063      8.49969      6.35101         0.000971      0.070852     -0.069618
O	      4.16452      6.56376      8.36476         0.011419      0.133212      0.262001
O	      6.18888      8.63936      8.33920        -0.089843     -0.017441      0.156103
O	      6.27660      6.49169     10.72158        -0.003645      0.044693      0.094903
O	      8.38352      8.60725     10.77764         0.005293      0.002170     -0.078704
