# total energy = -225.02063077 eV
 
CRYSTAL
PRIMVEC
-0.002346 6.336640 6.260466 
6.303202 -0.008979 6.267100 
4.201391 4.228008 -0.005196 
PRIMCOORD
36 1
Li	      8.37164      8.43348     12.49375         0.028611     -0.029106      0.013151
Li	      6.32299      2.15674      4.16774        -0.034262      0.016214      0.037204
Li	      6.36702      2.29794      8.34464         0.032765     -0.039519     -0.000580
Li	      8.19493      4.17951      8.48168         0.062170     -0.015554     -0.008524
Li	      2.13179      2.05606      4.12475         0.012088     -0.082025      0.031144
Li	      4.22786      4.22996      4.10927        -0.000298      0.054308     -0.037670
Li	      6.33463      4.19195      6.37995         0.020487     -0.025647     -0.025246
Li	      6.32144      4.25575     10.23082         0.016022     -0.001624      0.103491
Li	      6.30652      6.13602      8.36940         0.000895      0.028972     -0.049542
Sc	      2.13409      4.21326      6.13275        -0.003826     -0.040538     -0.098502
Mn	      4.19630      4.23983      0.01252        -0.035394     -0.017421      0.039759
Mn	      8.34963     10.46239     10.45710         0.019940     -0.004877      0.075541
V	      4.16532      2.14706      2.15942        -0.004840     -0.023244     -0.006361
V	      8.46770      6.27241      6.37778        -0.081916      0.050183      0.044560
V	      4.29442      6.31507      6.14881         0.005881     -0.021457     -0.244163
Ni	      6.30726      4.23952      2.12710        -0.033110      0.006832     -0.028033
Ni	      8.33295      6.37974     10.38115         0.010433      0.020692     -0.093976
Ni	      4.32642      4.23867      8.38955        -0.184375      0.011830     -0.051682
O	      2.33323      2.08027      2.09595         0.002032      0.086951     -0.000485
O	      4.25779      4.11555      1.98227        -0.098594      0.001871     -0.030843
O	      4.18654      1.99778      4.21367         0.031473     -0.013330      0.010351
O	      6.45387      4.19596      4.11608        -0.007836      0.008091      0.144614
O	      6.12731      2.04073      6.29784         0.093765      0.003520      0.026383
O	      8.42170      4.38197      6.32444         0.010918     -0.026364      0.020942
O	      2.11418      4.36274      4.16803        -0.013676     -0.098637      0.051355
O	      4.15201      6.34237      4.37343         0.079188      0.029067      0.085963
O	      4.21646      4.24987      6.28624        -0.032673      0.032565     -0.141795
O	      6.27557      6.36649      6.22045         0.004793      0.010726     -0.024363
O	      6.27602      4.19820      8.34710         0.116673      0.031323      0.007621
O	      8.32015      6.42387      8.19351        -0.020510     -0.101073     -0.075444
O	      2.18240      6.34763      6.26340        -0.020838     -0.011697     -0.006676
O	      4.22272      8.36112      6.37719         0.008624      0.023628      0.000092
O	      4.19784      6.37591      8.18492         0.086033      0.086242     -0.002566
O	      6.09362      8.47199      8.32798         0.040991     -0.076500     -0.014489
O	      6.20475      6.29742     10.61575        -0.090362      0.029749      0.083405
O	      8.35943      8.47824     10.40255        -0.021270      0.095852      0.165363
