# total energy = -234.94680831 eV
 
CRYSTAL
PRIMVEC
0.016536 6.384629 6.432590 
6.170325 0.005709 6.443975 
4.116286 4.266415 0.001339 
PRIMCOORD
36 1
Li	      8.15306      2.16242      6.43095         0.016579      0.033050     -0.018420
Li	      6.14710      4.28712      2.14401         0.013929     -0.064354      0.020241
Li	      4.00627      2.16721      2.18919        -0.045745      0.046876      0.017016
Li	      6.21458      2.10920      4.42061         0.054364      0.007622      0.019510
Li	      8.24936      4.25798      8.47857         0.041394     -0.022638     -0.068922
Li	      6.18395      6.34081      4.24391         0.020511     -0.029150      0.047434
Li	      8.26764      6.35013      6.46469        -0.016646      0.028284      0.046952
Li	      6.23981      4.18085      6.43607        -0.031809     -0.003409     -0.032159
Li	      8.21999      6.43995     10.71104        -0.027807      0.054367     -0.045828
Sc	      4.18493      4.14295      4.27707         0.005605     -0.007835      0.017864
Mn	      0.03587      4.24234      4.28711        -0.176550      0.101539     -0.005638
Mn	      4.07385      6.44006      6.43732         0.114534     -0.227527      0.070996
Mn	      6.25553      6.39650      8.58278         0.023461      0.069264      0.097080
V	      4.07637      0.09836      4.34211         0.067121     -0.192456      0.107264
V	      0.11717      2.07978      2.11114        -0.148202     -0.059689     -0.078861
V	      6.16022      8.58546      6.53672         0.174866     -0.260282     -0.037157
Co	      8.25146      8.50260      8.57611         0.118114      0.187487      0.182841
Cu	      6.18395      0.06075      6.44643        -0.164071      0.004992     -0.055862
O	      1.89682      2.12888      2.12008         0.132241     -0.072558      0.013024
O	      4.03430      4.37370      2.25812         0.019832      0.019836      0.055880
O	      4.10051      2.06011      4.23546        -0.017257      0.059202     -0.005641
O	      6.25401      4.22881      4.30794        -0.087794      0.021436      0.003902
O	      6.16591      2.06346      6.61615         0.055954      0.146635      0.098931
O	      8.30039      4.28754      6.17009        -0.127197     -0.008736      0.004694
O	      1.99420      4.17050      4.55237         0.056040      0.019716     -0.060447
O	      4.09914      6.31717      4.20398         0.008235     -0.010112      0.010107
O	      4.04575      4.28795      6.41321        -0.074349      0.021846     -0.028718
O	      6.17185      6.49756      6.64175        -0.036361      0.115811     -0.122994
O	      6.24906      4.13054      8.70268        -0.251946      0.041216      0.000329
O	      8.26048      6.44464      8.60059         0.070810      0.469405     -0.006384
O	      2.01277      6.28383      6.43149         0.102372      0.098251     -0.043590
O	      4.14523      8.58949      6.31741         0.036896     -0.025224     -0.022747
O	      4.21827      6.36200      8.70716        -0.087482     -0.492170     -0.042843
O	      6.12048      8.58870      8.36531         0.096655      0.039628      0.028478
O	      6.16869      6.46094     10.50684        -0.017857     -0.011399     -0.035432
O	      8.37653      8.68629     10.68270         0.081560     -0.098927     -0.130902
