# total energy = -234.78189255 eV
 
CRYSTAL
PRIMVEC
0.011376 6.433710 6.304069 
6.241934 0.010008 6.305389 
4.166532 4.295070 0.001328 
PRIMCOORD
36 1
Li	      4.17846      2.16053      2.14931        -0.042840      0.022079      0.061791
Li	      6.19997      2.17239      4.18414        -0.035201     -0.005388      0.024382
Li	      6.26039      6.38865      4.23443         0.042287     -0.003688     -0.016495
Li	      4.23697      4.31378      4.18334         0.018130      0.006130     -0.017652
Li	      6.23958      4.33853      6.30223        -0.014685      0.031483      0.012420
Li	     10.37132      8.54850     10.49250         0.042385     -0.002051      0.008094
Li	      2.15843      6.46527      4.18805        -0.008431     -0.008174      0.035357
Li	      6.25285      8.52907      6.30701         0.054451      0.047108     -0.052971
Li	      6.23298      6.44246      8.39891        -0.023911     -0.046507      0.009734
Sc	      4.24972     10.62155      6.27453         0.122463     -0.049630     -0.005263
Mn	      4.15543      6.41189      2.18468         0.022794      0.031911      0.003863
Mn	      4.08278      2.23099      6.24957         0.004124      0.087867     -0.051247
Mn	      4.27218      6.47863      6.17909        -0.025165     -0.068615      0.074544
V	      4.12490      0.05643      4.20035        -0.048284      0.028985     -0.012696
V	      2.00173      4.25865      2.26036         0.020874      0.000430      0.256265
V	      8.22548      8.60174      8.43527         0.100699      0.066283     -0.116505
Co	      8.34861      8.57795     12.54334         0.021077      0.042909     -0.013675
Ni	      2.08623      0.01976      2.12161        -0.031789      0.067131     -0.063736
O	      2.06825      2.28289      2.05295        -0.018809     -0.001504     -0.050927
O	      4.08564      4.29306      2.09844        -0.118076     -0.028287     -0.039938
O	      4.16771      2.01300      4.23151         0.018871     -0.034735     -0.025772
O	      6.42180      4.28445      4.15152         0.019080     -0.040439      0.102373
O	      6.19103      2.07600      6.45410         0.097179      0.044609     -0.002277
O	      8.31267      4.29074      6.31445        -0.007309      0.198321      0.065618
O	      2.07990      4.35708      3.98761        -0.014581     -0.056001     -0.242872
O	      4.17693      6.39867      4.09169         0.041433      0.022857     -0.052163
O	      4.24198      4.36377      6.47947        -0.088190     -0.050001     -0.009917
O	      6.29968      6.51565      6.26047        -0.012460     -0.019477      0.007998
O	      6.25960      4.24669      8.42217        -0.034704      0.048314      0.012098
O	      8.27670      6.46828      8.38357         0.031650     -0.044915     -0.023465
O	      2.12502      6.44937      6.35858        -0.044883     -0.106211     -0.057111
O	      4.18369      8.56483      6.30139        -0.136386     -0.015214      0.020119
O	      4.17760      6.31732      8.49104         0.096642     -0.063225      0.075280
O	      6.44145      8.63457      8.43875        -0.036511     -0.081816     -0.016297
O	      6.03407      6.44145     10.54891        -0.001732     -0.014436      0.013286
O	      8.33194      8.68247     10.43133        -0.010191     -0.006105      0.087755
