# total energy = -135.73993825 eV
 
CRYSTAL
PRIMVEC
2.091377 2.091385 -0.000031 
-2.091389 2.091397 -0.000025 
0.000061 -0.000470 23.757710 
PRIMCOORD
24 1
Li	      1.04421      1.04559      0.95017        -0.000549      0.000107      0.028073
Li	      1.04119      1.04748      4.94294         0.003648     -0.001805      0.013020
Li	      1.04290      1.04672      8.95170        -0.000209     -0.000340     -0.042660
Li	      1.04519      1.04594     12.82202        -0.000217      0.002093      0.022706
Li	      1.04640      1.04733     16.87965        -0.000931     -0.003294     -0.032713
Li	     -1.04653      3.13488     20.78487         0.000717      0.002561      0.014732
Mn	      1.04280      3.13802      2.96710        -0.000797     -0.000762      0.002098
Mn	      1.04188      3.13857      6.92096         0.001259     -0.000283      0.029185
Mn	     -1.04526      1.04673     14.86017        -0.000643     -0.000254     -0.056512
Ni	      1.04426      3.13762     10.88792        -0.001681      0.001560     -0.006142
Ni	     -1.04553      1.04564     18.80267        -0.000458     -0.000612      0.025071
Ni	      1.04462      3.13519     22.77148        -0.001549     -0.000013     -0.019757
O	      1.04276      1.04669      2.99084         0.000977     -0.001633     -0.014685
O	      1.04187      1.04722      6.89621         0.000778     -0.000445     -0.003703
O	      1.04424      1.04627     10.88301         0.000040      0.000472     -0.015199
O	      1.04621      1.04673     14.86069        -0.001210     -0.000410      0.009525
O	      1.04591      1.04568     18.79842        -0.000885     -0.001119      0.043820
O	     -1.04681      3.13507     22.78253        -0.000248      0.002789     -0.021234
O	      1.04341      3.13721      1.10426         0.001040      0.000203      0.095191
O	      1.04161      3.13877      4.93994         0.003328     -0.001853     -0.036953
O	      1.04252      3.13832      8.77558         0.000538      0.000394     -0.099345
O	     -1.04569      1.04652     12.98396        -0.001326     -0.000158      0.105730
O	     -1.04489      1.04691     16.75233        -0.001082      0.000494     -0.034350
O	      1.04517      3.13503     20.77548        -0.000542      0.002306     -0.005898
