# total energy = -231.53867661 eV
 
CRYSTAL
PRIMVEC
-0.021333 6.313750 6.479449 
6.213996 -0.001134 6.459169 
4.144484 4.197126 -0.002562 
PRIMCOORD
36 1
Li	      8.26456      8.40408     12.80998        -0.004965     -0.056744      0.006576
Li	      4.11570      2.11862      2.12827        -0.008865      0.023587     -0.036033
Li	      8.26036     10.31666     10.81376        -0.015138      0.002091      0.019711
Li	      6.33188      8.38776     10.83214        -0.043752     -0.025228      0.017848
Li	      6.18650      2.09677      8.56818         0.002108     -0.037788     -0.057369
Li	      6.23775      4.12487      6.41436         0.010060     -0.075629     -0.014453
Li	     10.22519      8.42110     10.84854         0.075842     -0.017091     -0.018929
Li	      8.26783      6.46009     10.77228         0.017206     -0.061257     -0.016446
Li	      4.11764      6.34105      6.44902         0.036091      0.048704      0.005362
Sc	      6.12653      6.39869      8.77633         0.057810     -0.060238     -0.003535
Mn	      6.17069      6.29380     12.78455         0.001397     -0.000112      0.108615
Mn	      4.14377      2.09557      6.46566         0.007710     -0.036916      0.032491
Mn	      2.04582      4.26280      6.46660        -0.005983      0.040012     -0.022054
V	      2.13255      0.03821      2.18004        -0.084881      0.068470      0.068762
V	      1.98725      4.06876      2.12372         0.081242      0.019097      0.014349
V	      4.14929      4.30515      4.29486        -0.025022      0.019830     -0.020113
Cu	      6.20792      6.28935      4.34733        -0.069238     -0.035996      0.005243
Cu	      8.29465      8.40569      8.79507         0.082008     -0.015536     -0.185861
O	      8.30772      8.36956     10.68909         0.012463     -0.019821      0.182268
O	      2.08945      2.15106      2.10166         0.000049     -0.083120     -0.080014
O	      4.11906      4.17848      2.32122         0.055564     -0.010058     -0.055095
O	      4.03971      2.30128      4.50142         0.130161     -0.010223      0.036038
O	      6.13851      4.21861      4.19580         0.091466     -0.108807      0.073539
O	      6.07769      1.91923      6.42576         0.036987      0.022093     -0.014220
O	      8.35652      4.08362      6.59483        -0.023417     -0.006439     -0.152781
O	      2.16208      4.18285      4.13410        -0.068824      0.067430      0.069234
O	      4.20198      6.12553      4.36044        -0.128024      0.171106     -0.025480
O	      4.03173      4.29064      6.38565        -0.016475      0.027311      0.052905
O	      6.28967      6.45999      6.57736        -0.039948      0.099003      0.098600
O	      6.39762      4.20501      8.56612        -0.152981      0.013309     -0.050849
O	      8.27961      6.13442      8.45858         0.018155     -0.033545     -0.028275
O	      1.96341      6.25353      6.63203         0.029217     -0.019423     -0.057308
O	      4.26659      8.54398      6.40394        -0.045618     -0.018427      0.040020
O	      4.04163      6.34944      8.63684         0.020749      0.131146      0.015428
O	      6.18330      8.47607      8.65510        -0.061546      0.013590      0.055198
O	      6.19088      6.31594     10.73744         0.028393     -0.034381     -0.063373
