# total energy = -234.87602270 eV
 
CRYSTAL
PRIMVEC
0.029098 6.388817 6.182214 
6.470715 0.028169 6.183084 
4.323512 4.269099 0.009542 
PRIMCOORD
36 1
Li	      6.51709      6.42399     12.30700        -0.017673      0.026891      0.027312
Li	      4.27392      2.22523      2.22666        -0.001377      0.003035      0.034771
Li	      4.32198      0.16294      4.14691        -0.057088      0.046746      0.006528
Li	      6.40200      2.11473      4.13987        -0.002077      0.031211      0.017859
Li	      2.25583      4.20424      2.17660        -0.025706     -0.011151     -0.097133
Li	      2.30179      2.32146      4.10808        -0.018031      0.036219      0.001547
Li	      4.13770      4.17312      4.10106         0.036844      0.047618      0.026025
Li	      0.20140      4.32021      4.14651         0.009305     -0.038567     -0.032001
Li	      2.13746      4.29974      6.02958        -0.019951     -0.000860      0.037672
Sc	      6.51073      6.46474      8.35044         0.093643      0.011416      0.010144
Mn	      8.66318      8.60024     12.28044        -0.023827      0.071472      0.047369
Mn	      4.33304      2.11724      6.05225        -0.032679      0.037984      0.029177
Mn	      6.50003      4.31113      6.05227        -0.077221     -0.082886     -0.057872
V	      4.37804      6.31075      2.16883        -0.041072     -0.059603      0.009299
V	      4.33136      6.51531      6.15631         0.138875      0.003164      0.012429
V	      8.65520      8.55213      8.31091         0.039030     -0.215240      0.254606
Fe	      6.42653      4.22536      2.21250        -0.006451      0.153151     -0.055820
Cu	      2.07137      6.27359      4.17789         0.088354      0.193803     -0.010657
O	      2.16464      4.36866      4.08816        -0.067613     -0.227842      0.040909
O	      2.00099      2.03576      2.08588         0.042939      0.134164      0.072827
O	      4.43748      4.37287      2.06035        -0.172413     -0.097637     -0.006495
O	      4.33521      2.17016      4.21056         0.011737     -0.005513     -0.219319
O	      6.54155      4.23105      4.12308         0.031067     -0.030659      0.276039
O	      6.44942      2.12903      6.38247        -0.062598     -0.047918     -0.148981
O	      8.45356      4.33329      6.15985         0.022088      0.006771      0.025437
O	      4.24943      6.41820      4.02377         0.023130      0.028356      0.036921
O	      4.47216      4.40815      6.19122         0.042945      0.117138     -0.015964
O	      6.39264      6.45529      6.18874        -0.090873      0.039009     -0.008307
O	      6.37165      4.23169      8.11200         0.138755      0.110276      0.121408
O	      8.68193      6.46792      8.02340        -0.091272     -0.098929      0.025852
O	      2.39134      6.35662      6.36744         0.027477     -0.094467     -0.107223
O	      4.32411      8.29842      6.20444         0.154971      0.062912     -0.038386
O	      4.36473      6.38071      8.18583         0.072945     -0.014785      0.007756
O	      6.63271      8.57292      8.25626        -0.003387     -0.169005     -0.029048
O	      6.50583      6.36280     10.32494        -0.151713      0.006581     -0.002187
O	      8.64674      8.31923     10.23500        -0.011079      0.027147     -0.292493
