# total energy = -236.12553366 eV
 
CRYSTAL
PRIMVEC
0.010741 6.296559 6.470107 
6.285037 0.000267 6.480963 
4.186494 4.201236 0.003643 
PRIMCOORD
36 1
Li	      4.15001      4.23618      0.08375         0.029059     -0.002063      0.000251
Li	      4.16745      2.17430      2.24442         0.024793     -0.012536      0.060492
Li	      6.22352      2.11454      4.33052        -0.010193      0.028653      0.025234
Li	      4.21860      6.21177      2.18797         0.017385      0.013738      0.012888
Li	      2.28043      4.16465      2.13594         0.113220     -0.036351     -0.011196
Li	      6.34382      6.27713      4.36021         0.028404     -0.013520      0.057547
Li	      4.14733      2.12597      6.38808        -0.047152      0.026485     -0.027908
Li	      4.22041      6.29070      6.39265        -0.010521     -0.017968     -0.103654
Li	      6.27464      6.32101      8.61345        -0.028427      0.012029     -0.016765
Sc	      6.25677      4.29238      6.50188        -0.037656      0.059880     -0.001992
Mn	      6.24292      4.21557      2.23006        -0.037299     -0.015053      0.007194
Mn	      6.23178      8.30755      6.48695        -0.064989      0.039603      0.011024
Mn	      8.33734      8.41911      8.61680        -0.034996      0.033775     -0.019816
V	      2.08029      2.08813      0.05290         0.112372     -0.089383     -0.064250
V	      4.23136      0.12809      4.35615         0.032055      0.064940      0.028487
V	      8.34742      6.27717     10.73902         0.069845     -0.021694      0.050633
Fe	      6.31112      4.14993     10.72327         0.004557     -0.063584      0.023421
Ni	      4.23229      4.12776      4.29614        -0.059035      0.064273      0.029453
O	      2.15083      1.96735      1.97217         0.009560     -0.004709      0.042911
O	      4.31641      4.17739      2.24009         0.080590      0.030407     -0.155117
O	      4.22937      2.04279      4.32980         0.003512     -0.170574      0.023746
O	      6.31848      4.24555      4.39963         0.079527      0.001360      0.039827
O	      6.52821      2.12853      6.47175        -0.048504     -0.015722      0.019842
O	      8.40363      4.11930      6.44301        -0.030115      0.008259     -0.074022
O	      2.06030      4.30850      4.24129        -0.051903      0.027404     -0.024540
O	      4.04722      6.33134      4.29351        -0.002418      0.037190     -0.050352
O	      4.20602      4.15411      6.42239         0.054912      0.027682      0.138888
O	      6.27301      6.27143      6.53791         0.000919     -0.126552     -0.011955
O	      6.11766      4.19333      8.68757        -0.090462      0.001837     -0.065551
O	      8.33095      6.43877      8.88931         0.008215      0.003422     -0.090077
O	      2.08111      6.36985      6.24074        -0.006141      0.068095      0.022159
O	      4.04011      8.37198      6.30840        -0.052810      0.004406      0.006178
O	      4.07747      6.20367      8.79538        -0.043524     -0.043089      0.094796
O	      6.39168      8.51963      8.62422         0.058684      0.061748      0.064316
O	      6.34599      6.20463     10.77207        -0.053181      0.033637     -0.005525
O	      8.42744      8.40693     10.88963        -0.018282     -0.016028     -0.036565
