# total energy = -231.91944816 eV
 
CRYSTAL
PRIMVEC
-0.002844 6.276248 6.557740 
6.104423 0.026210 6.528732 
4.087821 4.182536 -0.000688 
PRIMCOORD
36 1
Li	      6.10446      0.08761      6.55198         0.042180      0.013621      0.017187
Li	      7.99726      2.15132      6.64303         0.027784     -0.046653     -0.007795
Li	      4.10889      2.13729      2.27637        -0.011976     -0.028743     -0.010050
Li	      6.12818      2.11760      4.52176        -0.042532     -0.027731      0.018967
Li	      6.15402      2.09199      8.57593         0.014551      0.051601      0.040283
Li	      2.02580      2.07559      4.32324         0.016398     -0.038824     -0.043744
Li	      6.16051      4.09737      6.58994        -0.055846      0.041597      0.079452
Li	      6.11249      4.14938     10.76844        -0.027989      0.039141     -0.032477
Li	      6.08615      6.26749      8.69446        -0.052847     -0.018829      0.010159
Sc	      4.13141      2.11740      6.57096        -0.063538      0.168222      0.035549
Mn	      1.98441      0.07719      2.17187         0.007201     -0.091232     -0.093646
Mn	      2.01875      4.05491      2.20133        -0.115298     -0.008411     -0.076063
Mn	      4.12263      4.21024      8.69963        -0.041178      0.057040     -0.044207
V	      8.19477      4.25111      4.45535         0.059844     -0.001924      0.033784
V	      8.09152      6.34703     10.90706         0.010355      0.076840      0.091852
V	      4.12065      6.45792      6.51171        -0.015581     -0.191115     -0.091351
Ni	      4.16306      4.18854      4.36974         0.026146     -0.064078     -0.002499
Ni	      2.00736      4.23033      6.53780         0.025081     -0.032343     -0.047450
O	      2.02865      2.01295      2.22698         0.038707     -0.089682      0.005366
O	      4.14229      4.15580      2.33965        -0.032738      0.015636     -0.214196
O	      4.08722      2.01278      4.44481         0.041423     -0.094329      0.003568
O	      6.34311      4.13790      4.31214         0.083059     -0.015192      0.178206
O	      6.06356      2.10206      6.55819        -0.007423     -0.043462     -0.039628
O	      8.17016      4.21429      6.39871         0.015380     -0.131411     -0.004359
O	      2.05309      4.40184      4.38129        -0.145703      0.070963     -0.139177
O	      3.99381      6.25257      4.55495         0.016607      0.163280     -0.048254
O	      4.07279      4.30033      6.46618         0.087835      0.003780     -0.012333
O	      6.04072      6.34935      6.53581         0.085864     -0.153626     -0.075577
O	      6.03172      4.17502      8.70823         0.007037      0.056317      0.058588
O	      8.10298      6.30880      8.79792         0.054819      0.107553     -0.094849
O	      2.07590      6.28221      6.37994        -0.065539      0.101136     -0.030581
O	      4.05148      8.21891      6.55689        -0.110353      0.151171      0.030141
O	      4.01136      6.27044      8.62929         0.159446     -0.054814      0.097118
O	      6.22405      8.54223      8.57905         0.011327     -0.051787      0.146448
O	      5.98317      6.24053     10.85152         0.013622      0.073422      0.122564
O	      8.13082      8.22641     10.83858        -0.056125     -0.007134      0.139006
