# total energy = -225.94137672 eV
 
CRYSTAL
PRIMVEC
0.018718 6.078137 6.254964 
6.197406 -0.003648 6.277094 
4.141532 4.077495 -0.012289 
PRIMCOORD
36 1
Li	      6.20616      6.10739     12.45357        -0.002406      0.002268     -0.005947
Li	      6.21709      4.09770      2.14384        -0.011787     -0.000974     -0.005239
Li	      6.17832      2.06448      4.23774         0.010063      0.011804     -0.041241
Li	      4.16101      6.07276      2.10082         0.010696     -0.024668      0.029915
Li	      6.16885      6.06646      4.29450        -0.006808      0.025128      0.026666
Li	      6.26240      4.16901      6.16149         0.026964      0.077254     -0.052907
Li	      8.25723      6.08379     10.45282        -0.057204     -0.024428     -0.003732
Li	      4.25478      6.09627      6.17583         0.090058      0.008487      0.013878
Li	      6.25111      6.02519      8.31658         0.005767      0.018922     -0.024428
Sc	      4.19662      8.05697      8.33409         0.000613      0.003418      0.057018
Ti	      4.10907      3.99495      8.24810        -0.210807      0.035254     -0.053478
Mn	      4.15966      8.10804      4.16025         0.113608      0.043990      0.036258
Cr	      8.12286      1.94376      6.28326        -0.050406     -0.029188      0.043581
Cr	      4.22432      4.14538      4.18617        -0.058450     -0.046716     -0.024419
Co	      8.24416      4.08566      8.35800        -0.002924     -0.028805      0.032694
Co	      2.08568      4.06586      6.24780        -0.028777      0.101085     -0.007467
Ni	      8.22124      4.08013      4.19001        -0.071332      0.049591      0.051148
Ni	      8.28944      6.05616      6.22611         0.134864     -0.028898      0.021350
O	      2.07661      2.15225      1.95613        -0.027405      0.012936     -0.051110
O	      3.98235      4.06186      2.19980        -0.057851      0.027524      0.027406
O	      4.16451      2.07787      4.15129         0.019724      0.137169     -0.077724
O	      6.15838      4.09506      4.14267        -0.097576      0.009277     -0.006052
O	      6.31236      2.03309      6.23592         0.046291     -0.009181      0.003796
O	      8.27155      3.98031      6.38470         0.009450     -0.123414      0.103048
O	      1.99099      4.08305      4.07683        -0.055532     -0.008523     -0.134284
O	      4.12857      6.13995      4.18823        -0.003869      0.055310     -0.004234
O	      4.23345      4.06762      6.31790        -0.054001      0.089024      0.089341
O	      6.29322      6.20871      6.26093        -0.126764     -0.065650     -0.049782
O	      6.21242      4.03191      8.51813        -0.011183     -0.032567      0.031633
O	      8.28915      6.11118      8.29819         0.024557      0.077512      0.128172
O	      2.07146      6.17928      6.30326        -0.023070      0.066303     -0.004206
O	      4.04500      8.12227      6.16658         0.059429     -0.018684     -0.084791
O	      4.14607      5.96743      8.39051         0.023429     -0.121566     -0.146767
O	      6.32243      8.13274      8.32502         0.246225     -0.042018      0.069363
O	      6.13516      5.90538     10.46496         0.132314     -0.086630     -0.019499
O	      8.38514      8.10025     10.40751         0.004101     -0.160345      0.032039
