# total energy = -228.53600749 eV
 
CRYSTAL
PRIMVEC
-0.003210 6.199479 6.376026 
6.245211 0.010683 6.362171 
4.167684 4.128168 0.002733 
PRIMCOORD
36 1
Li	      4.09154      2.06414      2.14467         0.006646     -0.001726      0.027706
Li	      4.20461      6.17157      2.15717         0.000677     -0.021916      0.017359
Li	      2.04297      4.15635      2.19470        -0.030907      0.046554      0.042440
Li	      2.15037      2.14411      4.10233         0.001511     -0.013724     -0.038421
Li	      4.04176      4.17386      4.24822         0.004234      0.013922     -0.014544
Li	      4.14723      2.12563      6.38011        -0.022924      0.027965     -0.026381
Li	      0.04263      4.09959      4.20784         0.060110      0.010717     -0.074323
Li	      2.13310      4.12355      6.32329         0.049356      0.009723     -0.070658
Li	      4.18218      4.11824      8.45427         0.007382     -0.013104     -0.005632
Sc	      6.19626      2.10983      4.22685        -0.069693      0.081742      0.024796
Ti	      4.20419      6.25808      6.23953         0.240052     -0.045154     -0.214908
Mn	      6.27539      4.13693      6.44522        -0.004646      0.003154     -0.031991
Cr	      4.16383     10.25551      6.44572        -0.036874     -0.009625     -0.039955
Cr	      6.22960      6.21981      8.50164        -0.054462      0.017537     -0.048382
Co	      2.07827      6.20299      8.49365        -0.039798      0.004762      0.079938
Co	      8.31963      4.13289      4.26400        -0.163173      0.053472     -0.052412
Co	      2.14183      6.11511      4.17378         0.001876     -0.048152     -0.149232
Ni	      2.08162      2.04145      0.05679        -0.061882      0.016426     -0.018835
O	      2.06886      1.84586      2.06991         0.014547     -0.125906      0.116606
O	      4.34482      4.08475      2.01218         0.119359     -0.015282      0.000957
O	      4.15044      1.90692      4.27950        -0.012766     -0.074164      0.011351
O	      6.35760      4.16393      4.42747         0.088024     -0.057608      0.018591
O	      6.24666      1.96046      6.36067        -0.124734     -0.116138     -0.002384
O	      8.36173      4.09375      6.40366        -0.007174      0.091293      0.041650
O	      2.08926      4.27761      4.18177         0.000568      0.201855      0.035213
O	      4.18203      6.24938      4.37996         0.107811     -0.004721      0.207449
O	      4.28823      4.28269      6.34194         0.009225      0.072233     -0.010935
O	      6.14443      6.29630      6.50916        -0.091843      0.054219      0.033474
O	      6.23801      4.24171      8.33834         0.008227     -0.008342      0.027468
O	      8.19108      6.22426      8.64937         0.034595      0.030136      0.144454
O	      2.07440      6.16758      6.21565        -0.007758     -0.106349     -0.022686
O	      4.13441      8.22115      6.37952         0.131679     -0.032790      0.003507
O	      4.09387      6.18821      8.44325        -0.039287     -0.002254     -0.032097
O	      6.25642      8.31360      8.54825        -0.021290      0.056309      0.002823
O	      6.12813      6.18351     10.59689        -0.085657     -0.037279      0.048930
O	      8.31299      8.31490     10.67284        -0.011012     -0.057787     -0.030940
