# total energy = -232.25342925 eV
 
CRYSTAL
PRIMVEC
0.013610 6.220716 6.257884 
6.217330 0.034356 6.236688 
4.158022 4.146314 0.009974 
PRIMCOORD
36 1
Li	      8.29932      2.13148      6.23591        -0.019408      0.052919     -0.028384
Li	      4.10409      2.14087      2.10467         0.014700      0.004471     -0.018753
Li	     10.33001      6.33573      8.40123         0.000097      0.027826      0.072410
Li	      2.06166      2.15213      4.12453        -0.026791      0.054799     -0.009473
Li	      4.06852      4.16313      4.16003        -0.111142      0.010390      0.078236
Li	      6.24538      4.14864      6.28834         0.071261     -0.044003     -0.026908
Li	      2.12356      6.18949      4.11877        -0.023140     -0.071902      0.032385
Li	      8.38053      8.24202      8.38999        -0.023345      0.017268     -0.011297
Li	      6.30262      6.18440      8.34263         0.029242     -0.030332      0.040970
Sc	      1.96952      0.16682      2.09322         0.000776      0.011729      0.068388
Ti	      4.28655      6.16001      6.25222         0.086681     -0.159761     -0.239674
Mn	      6.28956      8.29152     10.36078         0.037966      0.023539     -0.037139
Cr	      4.17308      6.23575     10.35822         0.039178     -0.043730      0.021115
Cr	      4.16038      2.09807      6.25196        -0.111027      0.055747     -0.043238
Co	      6.23897      8.30382      6.27967         0.030596     -0.021034     -0.247906
Co	     10.37677     10.37413     12.48094        -0.024460     -0.091890     -0.104551
Co	      2.06874      4.11713      2.15190        -0.260368      0.066203     -0.550551
Co	      4.17382      8.26936      4.19086         0.195414     -0.013997      0.015864
O	      2.03544      2.19874      2.07295         0.058058      0.107540      0.120634
O	      4.04776      4.15897      1.94315        -0.139967      0.016970     -0.136081
O	      4.23620      2.03723      4.21841         0.019811      0.016312     -0.019637
O	      6.32572      4.17801      4.16104        -0.000776      0.022636     -0.034045
O	      6.16322      1.95216      6.08535         0.030916     -0.027031      0.013078
O	      8.42450      4.24334      6.14148         0.043096     -0.036615     -0.222989
O	      1.94198      4.15396      4.21817        -0.141880     -0.041544      0.736497
O	      4.13408      6.31375      4.35668         0.039815      0.031916      0.226930
O	      4.20091      4.21490      6.25136         0.173554      0.138741      0.092464
O	      6.20202      6.21931      6.28849        -0.013965      0.106462      0.079846
O	      6.34710      4.15593      8.50260         0.174164      0.020599      0.066227
O	      8.30211      6.08873      8.21966         0.100376     -0.138955      0.157365
O	      2.03189      6.21360      6.27889        -0.046967     -0.166549      0.037530
O	      4.14353      8.31590      6.16269        -0.157143      0.025341     -0.041363
O	      4.11870      6.28399      8.25538        -0.012152      0.041140     -0.026895
O	      6.24042      8.35501      8.43325        -0.011132      0.027156     -0.050001
O	      6.18728      6.11957     10.51630         0.004592     -0.027918      0.029660
O	      8.34436      8.39049     10.39507        -0.026630      0.035554     -0.040715
