# total energy = -227.88683646 eV
 
CRYSTAL
PRIMVEC
0.003641 6.355321 6.259979 
6.245419 0.033375 6.229892 
4.181277 4.234764 0.004905 
PRIMCOORD
36 1
Li	      2.17679      8.35007      6.30435        -0.083159      0.050789      0.066500
Li	      4.12361      2.08578      2.09007        -0.019645      0.017895      0.073700
Li	      4.22142      6.42386     10.41292         0.045038      0.021397      0.073677
Li	      2.14408      4.18317      2.10766         0.012462     -0.013116     -0.045228
Li	      2.12777      2.22753      4.06507         0.068124      0.020061     -0.004350
Li	      4.08073      4.17191      4.13072        -0.022694     -0.026651     -0.069979
Li	      2.09755      6.30625      4.30390        -0.070231     -0.075895     -0.036846
Li	      6.17027      8.53790      6.23448         0.025817     -0.054838     -0.009738
Li	      6.18424      6.45508      8.31890         0.020206      0.000539     -0.028656
Sc	      8.28200      8.55769      8.35674         0.005588     -0.089024     -0.044174
Ti	      6.35144      4.33312      6.10575         0.405416      0.281224     -0.189883
Mn	      4.13759      2.18075      6.21501        -0.069546      0.057190     -0.037214
Cr	      6.27540      8.42766     10.45392        -0.084362     -0.011347      0.034949
Cr	      0.08706      4.23753      4.20992         0.260664      0.266294     -0.203482
Fe	      4.28700      6.27449      2.16711        -0.150789     -0.000900     -0.125568
Co	      4.13430      6.36533      6.19247        -0.331810     -0.263287     -0.126375
Cu	      4.24880     10.52381      6.30909         0.018927     -0.265105      0.076629
Ni	      2.08824      0.03497      2.06651        -0.058821      0.013585      0.208437
O	      2.01568      2.08531      2.10529         0.078817      0.098066     -0.007648
O	      4.20254      4.31177      1.99310        -0.110160     -0.025010      0.249814
O	      4.27015      2.13727      4.31591         0.013592      0.013796     -0.052056
O	      6.28508      4.12677      4.24259         0.039772      0.019350      0.217616
O	      6.26648      2.32865      6.25276        -0.001737      0.127975     -0.035803
O	      8.24010      4.39250      6.27105        -0.465518     -0.095968     -0.041188
O	      1.89092      4.25284      4.14831        -0.253410      0.020851      0.035082
O	      4.15084      6.47972      4.18695        -0.017353      0.024196     -0.247096
O	      4.25077      4.30817      6.21014         0.056297     -0.508467      0.034850
O	      6.14499      6.25231      6.21216         0.792007     -0.292220      0.004718
O	      6.22646      4.22155      8.37668        -0.042826     -0.001098      0.161819
O	      8.41143      6.44785      8.13346         0.037387      0.058571      0.132453
O	      2.18085      6.28823      6.29830        -0.464647      0.028283     -0.224435
O	      4.15280      8.29584      6.08813         0.016653      0.780631     -0.015501
O	      4.15011      6.38617      8.13676         0.130762     -0.040081      0.488635
O	      6.23538      8.47756      8.47867         0.047996     -0.033243     -0.006136
O	      6.25696      6.35998     10.58727         0.059326     -0.068104     -0.315420
O	      8.37296      8.53071     10.39172         0.111853     -0.036337      0.007898
