# total energy = -228.07863314 eV
 
CRYSTAL
PRIMVEC
0.038172 6.324761 6.239383 
6.350552 0.042361 6.235750 
4.234118 4.214231 0.027818 
PRIMCOORD
36 1
Li	      6.36172      6.32597     12.38802        -0.006899      0.020881      0.070097
Li	      8.49325      4.27327      4.27590        -0.014489      0.038043      0.036116
Li	      8.41051      4.34286      8.38724        -0.044615      0.063638      0.000161
Li	      2.22056      2.22319      4.21476         0.077399      0.118585     -0.079718
Li	      4.13307      4.16051      4.20863        -0.024176     -0.035492      0.021015
Li	      8.36065      6.29338      6.21213        -0.030169     -0.076831      0.008222
Li	      6.50976      4.38025     10.36858         0.030797      0.058251     -0.034514
Li	      2.16400      4.19611      6.09523         0.038160     -0.015386     -0.009032
Li	      6.46195      6.28550      8.34758         0.023387     -0.040547     -0.042689
Sc	      4.34972      6.31695      6.10573         0.084846     -0.119642     -0.111229
Ti	      4.32672      2.20833      2.14068         0.082163      0.214150      0.324915
Mn	      4.22782      6.33898      2.16248         0.060599     -0.010760     -0.034386
Cr	      8.46686      2.21035      6.23294        -0.101050      0.053703      0.050336
Cr	      8.49712      8.44545      8.35344         0.027319     -0.042217     -0.059031
Fe	      6.37799      4.22806      2.23324        -0.059788      0.109506     -0.011004
Co	      6.37788      4.25034      6.24867         0.040036      0.062885     -0.001211
Cu	      6.32693      2.07161      4.23058        -0.139616     -0.024832      0.043320
Cu	      8.40361      6.29512     10.42664         0.140183      0.007544     -0.019707
O	      2.11040      4.30892      4.16963         0.050600     -0.076969     -0.027550
O	      6.43433      6.45686     10.42636        -0.117103     -0.101049     -0.026020
O	      2.22100      2.03559      2.05738         0.077453      0.059996      0.006582
O	      4.33789      4.13197      2.08228        -0.002012     -0.256435     -0.002568
O	      4.27772      2.08709      4.00712        -0.068593     -0.004836     -0.355495
O	      6.34058      4.08028      4.21262         0.028471     -0.030018      0.016817
O	      6.44340      2.27162      6.45400         0.012642     -0.045126     -0.149749
O	      8.31969      4.17632      6.27809        -0.027187     -0.022984      0.047909
O	      4.20126      6.32974      4.06299         0.021347     -0.001905      0.296181
O	      4.38236      4.23922      6.33136        -0.051583     -0.009201     -0.043699
O	      6.36568      6.19680      6.20374        -0.026769     -0.019468     -0.004255
O	      6.24580      4.24213      8.22217        -0.010396      0.075684      0.120189
O	      8.51539      6.47627      8.41103        -0.122534     -0.028828     -0.094148
O	      2.18322      6.45432      6.27623        -0.060502     -0.029679      0.062612
O	      4.16789      8.41434      6.35601         0.027022      0.066728      0.029133
O	      4.19099      6.33490      8.28716         0.087651      0.016130      0.033933
O	      6.33772      8.52966      8.16400        -0.018170     -0.111649     -0.096006
O	      8.40757      8.39440     10.42514         0.015574      0.138128      0.034476
