# total energy = -135.48778807 eV
 
CRYSTAL
PRIMVEC
2.091027 2.092742 0.000001 
-12.661442 12.671802 -0.000192 
0.000021 -0.000020 3.925210 
PRIMCOORD
24 1
Li	     -9.47725     11.57705      0.97860         0.008756     -0.007999      0.000970
Li	     -7.33327      9.43454      0.97903        -0.002510      0.002022     -0.000293
Li	     -5.27942      7.37890      0.98042         0.008630     -0.009002     -0.001024
Li	     -3.17594      5.27317      0.98117         0.002352     -0.000594     -0.000577
Li	     -1.13133      3.22527      0.98030        -0.012178      0.013556      0.000631
Li	      1.01486      1.07987      0.97936        -0.000453      0.000234      0.000442
Mn	     -1.09924      1.10105      2.94248         0.013640     -0.015630      0.000460
Mn	     -9.45276      9.46197      2.94136        -0.022198      0.023098      0.000497
Mn	    -11.60771     11.61831      2.94146         0.009697     -0.009327     -0.000203
Ni	     -3.24754      3.25370      2.94352         0.091436     -0.093370      0.000002
Ni	     -5.27505      5.28163      2.94352        -0.013212      0.012305      0.000125
Ni	     -7.30351      7.31009      2.94235        -0.091686      0.092204      0.001048
O	     -9.44275     11.53887      2.94124         0.031046     -0.028536      0.000089
O	     -7.46884      9.57320      2.94157        -0.044405      0.040006     -0.000501
O	     -5.26729      7.36548      2.94306         0.001372     -0.001886     -0.001142
O	     -3.19258      5.29121      2.94378         0.004105     -0.005818     -0.000475
O	     -0.99226      3.08246      2.94283         0.044367     -0.042700     -0.000492
O	      0.98244      1.11642      2.94203        -0.036510      0.032936     -0.001116
O	    -11.60657     11.61724      0.97883         0.004213     -0.002786      0.001480
O	     -9.50392      9.51295      0.97864         0.001499     -0.002764      0.000865
O	     -7.39666      7.40557      0.97973         0.037250     -0.036615     -0.000708
O	     -5.27590      5.28240      0.98096         0.015195     -0.012553     -0.000335
O	     -3.15427      3.15747      0.98094        -0.044568      0.044568     -0.000399
O	     -1.04743      1.04922      0.97982        -0.005841      0.008649      0.000656
