# total energy = -229.06427174 eV
 
CRYSTAL
PRIMVEC
-0.008488 6.354181 6.170676 
6.246822 -0.014524 6.177321 
4.149485 4.225454 0.005076 
PRIMCOORD
36 1
Li	     10.18120      4.31212      6.13996        -0.035661      0.085090     -0.010645
Li	      8.30441      2.22654      6.13114        -0.031934      0.028454      0.007691
Li	      8.27606      4.23667      4.26913         0.001975     -0.015826     -0.103702
Li	      6.21183      2.15500      4.15754        -0.005793      0.009453     -0.029110
Li	      8.25117      4.30973      8.14480         0.001403      0.037753      0.023448
Li	      6.29606      6.30137      4.20552        -0.010878     -0.024220     -0.046073
Li	      6.26299      8.35939      6.21983         0.017856     -0.011731      0.013385
Li	      8.25078      8.42327      8.22389         0.002676     -0.000812      0.045612
Li	      6.31636      6.31956      8.15650        -0.017642     -0.017803      0.086069
Sc	      6.26467      2.12758      8.12062         0.022599      0.016728     -0.084253
Ti	      6.24315      4.32358     10.33354        -0.165646      0.269020     -0.106255
Mn	      2.11281      6.29686      8.19284        -0.029085     -0.004910      0.032666
Cr	      4.15238      8.43654      8.20465        -0.010074      0.027152      0.013527
Cr	      4.14577      4.19716      4.14782        -0.033485     -0.008538     -0.022657
Fe	      8.27093      6.37336     10.33402        -0.012179      0.043983      0.033461
Co	      4.18556      6.31516      6.18411         0.067342     -0.077913      0.030917
Ni	      6.27952      4.25204      6.15674        -0.025906     -0.120795      0.048060
Ni	      8.25459      6.27815      6.16869        -0.006263      0.158705     -0.003539
O	      2.12762      1.91914      2.02196         0.038931     -0.035587     -0.019880
O	      4.27676      4.16070      2.06754         0.009789     -0.001132      0.003079
O	      4.11778      2.22935      4.04354         0.002255     -0.022520     -0.073521
O	      6.15421      4.21783      3.98039         0.013600      0.013866     -0.112089
O	      6.17072      2.15896      6.15290         0.113139     -0.093029      0.034106
O	      8.26233      4.27901      6.19101         0.123112     -0.151524      0.014326
O	      2.07205      4.32494      4.12998        -0.027227     -0.065962     -0.002947
O	      4.13094      6.30681      4.20463         0.027899     -0.004511      0.033996
O	      4.21391      4.32129      6.11953        -0.123280      0.026646     -0.018593
O	      6.14447      6.27325      6.20901        -0.165817      0.183288      0.000970
O	      6.28970      4.15065      8.39532        -0.009026      0.033588      0.196485
O	      8.35566      6.35513      8.32787         0.003037     -0.021739     -0.008356
O	      2.22209      6.31735      6.20839         0.070198     -0.034042      0.087470
O	      4.18553      8.27877      6.14940         0.028637      0.025575     -0.054896
O	      4.04826      6.41225      8.12930        -0.006171     -0.035244     -0.021492
O	      6.14933      8.61324      8.23127         0.035523     -0.000023     -0.006419
O	      6.28814      6.19595     10.34879        -0.038821     -0.294449      0.005061
O	      8.48423      8.35375     10.32208         0.174917      0.083007      0.014100
