# total energy = -231.07511080 eV
 
CRYSTAL
PRIMVEC
-0.005275 6.351280 6.254880 
6.258390 0.026803 6.223209 
4.191702 4.232298 -0.001882 
PRIMCOORD
36 1
Li	      2.11158      2.13900      0.02949         0.037131     -0.051107      0.021116
Li	      4.15689      2.09982      2.12355         0.022410     -0.022194     -0.009432
Li	      8.28942      4.28690      4.12039        -0.010967      0.047330     -0.033542
Li	      6.23448      2.20161      4.13135        -0.054811      0.023474      0.007396
Li	      2.13680      4.18013      2.07992        -0.003119     -0.030276      0.049860
Li	      2.16044      2.08877      4.13674        -0.000275     -0.018127     -0.046740
Li	      4.20729      4.15696      4.18415         0.024151     -0.096426     -0.015113
Li	      4.20746      6.32382      6.31983         0.036888      0.028308      0.049307
Li	      4.10522      4.30934      8.28577        -0.002179      0.020388      0.005201
Sc	      0.04852      2.10212      2.04971         0.051477      0.044721      0.012123
Ti	     10.38437      8.47283     10.37656        -0.105657     -0.002827     -0.071587
Mn	      4.15671      4.20372      0.02291        -0.020670     -0.036354     -0.080116
Cr	      4.10396      2.15775      6.10348        -0.017088      0.051877     -0.347199
Cr	      2.09939      6.34188      4.18273        -0.023478      0.022299      0.043131
Fe	      2.23565      6.34521      8.44528        -0.108803     -0.057270     -0.222096
Co	      2.09860      4.25743      6.23607         0.076273      0.046006      0.079225
Co	      6.19130      6.45073      8.31165        -0.077073      0.032302      0.022877
Cu	      6.28341      4.28659      6.09448        -0.214413     -0.035298      0.102884
O	      2.06358      2.01082      2.04210         0.004096      0.090637     -0.062009
O	      4.24608      4.24587      1.95728        -0.069844     -0.028112      0.073950
O	      4.16175      2.13912      4.31160        -0.054633     -0.009913      0.281872
O	      6.26450      4.21856      4.11920        -0.037988      0.001875      0.073438
O	      6.14228      1.99492      6.20744        -0.037875     -0.106565     -0.070567
O	      8.27909      4.43601      6.23979        -0.039340      0.016698      0.034766
O	      1.99921      4.33085      4.26474         0.073739     -0.014902     -0.021470
O	      4.11279      6.48215      4.15831         0.077712      0.043591      0.021337
O	      4.10513      4.06383      6.24598         0.174256     -0.073301      0.032317
O	      6.33578      6.54369      6.22847        -0.065192      0.097976     -0.042721
O	      6.29333      4.26667      8.42137         0.004423     -0.033240      0.092503
O	      8.33876      6.36321      8.34693         0.002256      0.022144     -0.073627
O	      2.10824      6.21559      6.19852         0.123244      0.034772      0.049767
O	      4.31032      8.57100      6.15410        -0.035937      0.024624     -0.004285
O	      4.15716      6.36046      8.33575         0.158448     -0.011686      0.011978
O	      6.26886      8.53496      8.17924         0.020465      0.017803     -0.012222
O	      6.31528      6.29664     10.50028         0.005214     -0.024346     -0.033026
O	      8.49935      8.40324     10.47321         0.087159     -0.014878      0.080706
