# total energy = -230.77638034 eV
 
CRYSTAL
PRIMVEC
0.038617 6.345304 6.221367 
6.340272 0.065248 6.194269 
4.257402 4.242405 0.013547 
PRIMCOORD
36 1
Li	     10.37248      4.24503      6.22227        -0.017377      0.005145     -0.027411
Li	      8.51292      2.38625      6.30027        -0.049594      0.009488     -0.003823
Li	      4.24005      2.29534      1.99100        -0.024859      0.060502     -0.002095
Li	      8.60717      4.24294      4.34853         0.014228     -0.003611     -0.059924
Li	      8.53957      4.23627      8.06634         0.033320     -0.018235      0.042738
Li	      8.46570      6.17944      6.27233         0.006465     -0.007635      0.027892
Li	      6.57005      4.31857      6.26173         0.004666     -0.026972      0.000865
Li	      6.37930      8.49211      6.30276         0.015066      0.002701      0.023839
Li	      6.41994      6.37755      8.26106         0.002067     -0.020935      0.004580
Sc	      2.21666      2.10734      4.11432         0.102637     -0.102623     -0.060615
Ti	      4.30873      6.48235      6.32503         0.073224      0.210800      0.169629
Mn	      4.24695      4.24556      8.24263         0.021295     -0.086700     -0.136838
Cr	      6.34352      2.16098      4.15126         0.029170     -0.160914      0.022426
Cr	      4.24591      4.24625      4.16081         0.073856      0.143621      0.008690
Fe	      2.06506      6.28838      4.21232         0.028293      0.069954     -0.094904
Co	      6.35405      2.17127      7.97794        -0.009225      0.038429     -0.066235
Co	      6.33987      4.32474     10.34438         0.258958      0.122748      0.499661
Ni	      2.10117      6.36740      8.21349         0.000792      0.039078     -0.013672
O	      8.46161      4.29863      6.20502         0.017306     -0.027119     -0.011753
O	      2.01374      2.07183      2.09153        -0.004258      0.159608      0.013723
O	      4.27925      4.34328      2.17093        -0.113476     -0.009695      0.022650
O	      4.29949      2.25920      4.09681        -0.015687     -0.036874      0.008107
O	      6.25829      4.21050      4.12148        -0.069523      0.001768      0.121172
O	      6.33989      2.17186      6.19555         0.000765     -0.010530      0.075106
O	      2.17832      4.26804      4.11217         0.092215     -0.117690      0.023839
O	      4.25304      6.30671      4.21861         0.021267     -0.491111      0.010665
O	      4.23039      4.37623      6.28959         0.013585      0.058017      0.038633
O	      6.23117      6.39055      6.17948        -0.282802      0.056752      0.082455
O	      6.19216      4.21330      8.40357        -0.210113     -0.118518     -0.745197
O	      8.55770      6.56832      8.33228         0.021204      0.069140     -0.052265
O	      2.30386      6.36466      6.14513         0.198204      0.030078      0.014487
O	      4.29355      8.37868      6.18119        -0.023891     -0.277613      0.254396
O	      4.23563      6.23710      8.22585         0.092197      0.013903     -0.192626
O	      6.54091      8.53622      8.36470         0.100834     -0.126739     -0.030390
O	      6.47288      6.45603     10.34950        -0.187757      0.467178     -0.011883
O	      8.45688      8.45303     10.21247        -0.213053      0.084605      0.044079
