# total energy = -233.05108520 eV
 
CRYSTAL
PRIMVEC
0.010930 6.334013 6.258883 
6.303620 0.037764 6.232397 
4.203651 4.206035 0.024166 
PRIMCOORD
36 1
Li	      2.12981      8.37007      6.26601        -0.031188     -0.007430     -0.002018
Li	      4.18703      2.06612      2.22131         0.019363      0.008217      0.017325
Li	      4.19090      6.36537     10.33041         0.020141      0.044353     -0.024799
Li	      2.08241      4.17790      2.16586         0.044916     -0.023225     -0.005783
Li	      2.25639      2.20689      4.12163         0.043783     -0.007721     -0.015939
Li	      4.15733      4.14352      4.18546         0.043074      0.025773     -0.009841
Li	      6.32689      8.42719      6.28458         0.026350      0.029079     -0.005752
Li	      4.14625      4.30711      8.31417        -0.043570      0.033658      0.001865
Li	      6.28969      6.45895      8.33619        -0.045317      0.100331      0.026524
Sc	      4.16314     10.43007      6.30845        -0.010067      0.040848      0.137129
Ti	      6.40548      4.34505      6.20412         0.074619     -0.093350     -0.409392
Mn	      4.18488      6.35671      6.29335        -0.045306     -0.009872      0.171707
Cr	      4.26603      6.28354      2.13754         0.002529     -0.112394     -0.098182
Cr	      6.28071      4.25409     10.32730         0.060790      0.090186     -0.179905
Fe	      8.35914      6.33260     10.32173        -0.008369     -0.037475      0.004086
Co	      4.20317      2.18832      6.26924         0.087789      0.058176      0.042935
Co	      6.29753      4.21302      2.14538         0.037782     -0.121649     -0.024532
Co	      6.32228      8.48635     10.33491        -0.134388      0.214665      0.294456
O	      2.03864      1.90931      2.11458         0.002640     -0.027638      0.019370
O	      4.30213      4.25768      2.12050        -0.052310      0.048051     -0.014598
O	      4.30829      2.15441      4.39122         0.358415     -0.050328     -0.227261
O	      6.38909      4.26711      4.33360        -0.064201     -0.039419      0.456768
O	      6.23909      2.17659      6.30609        -0.008813      0.034562      0.156681
O	      8.36168      4.20659      6.31685        -0.216137      0.029130     -0.040884
O	      1.99107      4.32003      4.13448        -0.048301     -0.216811      0.040996
O	      4.13063      6.39557      4.19990         0.078418      0.085116     -0.010208
O	      4.37952      4.39086      6.27505         0.068666      0.020441     -0.068413
O	      6.39569      6.28732      6.31870         0.047190     -0.124423      0.011961
O	      6.35667      4.12766      8.29008        -0.015859     -0.035485      0.039543
O	      8.50748      6.35255      8.29195         0.009060      0.006806     -0.174357
O	      2.03348      6.31305      6.15384         0.021094      0.004619     -0.016445
O	      4.16528      8.35769      6.15577         0.042435     -0.073753     -0.079817
O	      4.06731      6.38626      8.20523         0.099740      0.032815     -0.106839
O	      6.27297      8.64719      8.38094        -0.031729      0.115116      0.047845
O	      6.32001      6.27718     10.36498        -0.091941     -0.006755      0.068943
O	      8.42502      8.35393     10.37106        -0.341297     -0.034213     -0.023170
