# total energy = -225.48137238 eV
 
CRYSTAL
PRIMVEC
-0.005169 6.241923 6.334949 
6.276256 -0.019488 6.349244 
4.174478 4.161373 -0.002880 
PRIMCOORD
36 1
Li	      6.26367      6.35686     12.49339         0.065773     -0.034344     -0.005655
Li	      8.26860      8.25955     12.49910         0.029327     -0.032719      0.015113
Li	      8.24162      4.13942      4.43271        -0.077494      0.005977     -0.044899
Li	      6.35666      2.09228      4.38076        -0.033247     -0.004390     -0.053142
Li	      6.35635      6.12277      4.33735         0.009344     -0.015172      0.016470
Li	      4.33848      1.99919      6.22833         0.023209      0.013138     -0.023201
Li	      6.27793      4.06353      6.21390        -0.027510      0.005230      0.026059
Li	     10.33480      8.35025     10.66944         0.023830      0.008143     -0.009927
Li	      8.34017      8.31858      8.56258         0.032004      0.025823     -0.033548
Sc	      6.32503      6.26753      8.49778         0.022231     -0.045282     -0.005923
Ti	      8.35087      4.10255      8.22981        -0.164700      0.044215     -0.379617
Mn	      4.15311      6.24945      6.33384         0.039960     -0.007102      0.070906
Cr	      4.16195      2.07713      2.11919        -0.014532     -0.033893      0.127338
Cr	      6.26991      2.09437      8.34964        -0.010174      0.024031      0.018669
Fe	      4.25377      4.07694      4.32296        -0.108971      0.109022     -0.039723
Cu	      8.32372      6.27236     10.61071         0.039324     -0.003473     -0.120450
Ni	      6.28470      4.12216      2.18003         0.008342      0.060598      0.056161
Ni	      2.07511      4.17495      6.29224        -0.038688     -0.033128     -0.015485
O	      8.33382      8.12829     10.52449         0.048136      0.170587     -0.001283
O	      2.06254      2.18200      2.19374         0.045426      0.019639      0.005792
O	      4.10543      4.17297      2.16569         0.020484     -0.026785     -0.018451
O	      4.14047      2.14807      4.12733         0.010715     -0.194425      0.051163
O	      6.18330      4.16326      4.17649         0.092171      0.040140      0.130897
O	      6.29829      2.06132      6.47331         0.018200     -0.041257     -0.017687
O	      8.39360      4.09483      6.42569         0.048700      0.023081      0.382302
O	      2.16974      4.37232      4.17951        -0.054088     -0.079386     -0.010964
O	      4.01830      6.23326      4.33231         0.017759     -0.005726      0.028088
O	      4.15471      4.29385      6.29748         0.026308      0.127377      0.097522
O	      6.09080      6.26454      6.34075        -0.125621     -0.064547     -0.007223
O	      6.41691      4.10207      8.46640         0.116576      0.058743     -0.117955
O	      8.41931      6.11278      8.27936        -0.051800     -0.075537     -0.169569
O	      2.24141      6.21677      6.51537         0.091051      0.072782      0.063747
O	      4.17968      8.18005      6.43862        -0.111370     -0.037338     -0.002898
O	      4.20126      6.29462      8.34149         0.015395      0.007950     -0.076734
O	      6.14902      8.31269      8.40366         0.031105     -0.070274      0.040713
O	      6.40630      6.21527     10.53948        -0.057173     -0.011699      0.023397
