# total energy = -225.20506280 eV
 
CRYSTAL
PRIMVEC
0.020314 6.188869 6.355342 
6.241244 0.013126 6.362671 
4.177792 4.147884 -0.008473 
PRIMCOORD
36 1
Li	      6.20157      0.12916      6.23824         0.014585     -0.013075     -0.016671
Li	      8.23863      2.12483      6.24103         0.025194      0.013210     -0.036614
Li	      4.20637      2.05832      2.25039        -0.018556     -0.012777     -0.019655
Li	      4.21636      0.16486      4.32885         0.000403      0.035020     -0.042234
Li	      6.14874      2.06105      4.40474         0.066792      0.070075     -0.044588
Li	      6.26930      2.03871      8.35389        -0.015376     -0.003321     -0.039517
Li	      2.21639      2.00425      4.24391         0.008689     -0.033512     -0.020317
Li	      4.31373      2.01681      6.14267         0.008721      0.077480     -0.017847
Li	      4.15885      8.31804      4.30999        -0.022532     -0.007630      0.036255
Sc	      4.28505      4.11178      8.52094         0.000338     -0.006637      0.065316
Ti	      2.10751      3.97126      2.00098         0.073331     -0.232315     -0.154357
Mn	      8.29718      6.23106     10.62225        -0.001432      0.031036      0.070435
Cr	      6.19312      4.22075      2.13995         0.009009     -0.026718     -0.094773
Cr	      4.15463      6.22033      6.32725        -0.027257      0.060062      0.022669
Fe	      6.17390      8.20266      6.32316         0.073481      0.015417     -0.067571
Cu	      4.19797      4.06211      4.21968         0.050388      0.068582      0.042615
Cu	      6.31483      4.06939      6.25184        -0.019222      0.266619      0.016459
Ni	      6.25066      6.24754      8.54728        -0.112756      0.164712     -0.041977
O	      6.24029      2.19477      6.38196         0.026772     -0.183154      0.017354
O	      2.06193      2.11792      2.13853        -0.025233      0.241074     -0.014901
O	      4.12978      4.14741      2.20053        -0.127210      0.032034     -0.291860
O	      4.15650      2.12513      4.22655         0.040160     -0.191664      0.015662
O	      6.16601      4.18509      4.06823         0.248346     -0.037408      0.062105
O	      8.38004      4.16755      6.52747         0.017207      0.082251      0.216206
O	      2.14450      4.23434      4.26205        -0.178809     -0.006929     -0.083023
O	      4.01327      6.13414      4.36320        -0.042630      0.026753     -0.111429
O	      4.10581      4.18138      6.32503        -0.006899     -0.191080      0.173163
O	      6.15323      6.18356      6.43595         0.211507     -0.106819     -0.136494
O	      6.38233      4.19249      8.57412         0.007224     -0.148357      0.054329
O	      8.33734      6.15002      8.68762         0.112018     -0.066418     -0.010690
O	      2.12270      6.16143      6.29901        -0.128573      0.019926     -0.020872
O	      4.27492      8.17681      6.31975        -0.177243      0.107303     -0.025394
O	      4.09639      6.18955      8.39259        -0.024489      0.021730      0.052645
O	      6.34147      8.37316      8.31717        -0.072352     -0.062778      0.112456
O	      6.39731      6.22917     10.55948         0.029019     -0.001427      0.268602
O	      8.37329      8.12569     10.53479        -0.022615     -0.001265      0.064514
