# total energy = -225.28641282 eV
 
CRYSTAL
PRIMVEC
0.013961 6.178059 6.248933 
6.354023 -0.000031 6.262976 
4.238686 4.130721 -0.002516 
PRIMCOORD
36 1
Li	      0.04332      6.17391      6.22872         0.100135     -0.086510     -0.098209
Li	      6.34442      4.11240      2.11665         0.015530     -0.016028     -0.105125
Li	      8.41145      4.07133      4.18604         0.117120     -0.082852     -0.071663
Li	      6.53670      8.26123     10.34255         0.160721     -0.105549     -0.074673
Li	      2.12594      4.14006      2.13323        -0.023570      0.009791      0.061595
Li	      4.25715      4.17918      4.15713        -0.018575      0.037006      0.016092
Li	      8.42203      6.16901     10.46580        -0.123449      0.004020      0.076188
Li	      2.19288      4.21817      6.21977         0.003719      0.157352      0.028143
Li	      8.43622      8.28150      8.37884         0.015299     -0.010500      0.067460
Sc	      4.28514      2.21261      2.09143         0.107788     -0.167431     -0.104519
Ti	      4.36838      2.04542      6.25374         0.200727      0.010097      0.069883
Mn	      6.35999      6.19769      4.19650        -0.010072      0.202449     -0.000667
Cr	      8.40626      8.19980     12.46584         0.121770      0.065564      0.000416
Cr	     10.58143      8.24927     10.44062        -0.062685      0.050209      0.132784
Fe	      6.38242      6.21262      8.36850        -0.103297     -0.017197      0.134318
Cu	      4.22637      6.13354      2.11804        -0.061365      0.058872      0.012089
Cu	      6.37454      4.11154      6.22127         0.078219     -0.028600      0.013551
Cu	      4.17995      6.08524      6.28237        -0.246522      0.173546     -0.044560
O	      4.41106      4.02675      6.24065        -0.133925     -0.224699     -0.057981
O	      2.11176      6.29587      6.25046         0.186912     -0.255965      0.107422
O	      2.10867      2.05895      2.18146        -0.088313      0.010851      0.133767
O	      4.21541      4.19975      2.09898         0.001362     -0.045404      0.053668
O	      4.07461      2.07429      4.21800        -0.090046      0.023498      0.049816
O	      6.36840      4.29941      4.19066        -0.036477      0.095091      0.171936
O	      6.29654      1.94918      6.12568        -0.157383      0.037608     -0.021628
O	      8.35512      4.14424      6.24759         0.099191      0.161921     -0.012194
O	      1.99134      3.99987      4.21504         0.163178     -0.159712     -0.055355
O	      4.37242      6.22629      4.34866         0.018110     -0.239284     -0.080223
O	      6.56308      6.30566      6.19520        -0.064270     -0.164783     -0.140157
O	      6.33035      4.01205      8.42868         0.013836      0.022256     -0.220333
O	      8.39493      6.16437      8.17690         0.182456     -0.025029     -0.129987
O	      4.06877      8.27104      6.23016         0.026228      0.114732      0.030275
O	      4.39449      6.18560      8.17352        -0.165813      0.024634      0.171981
O	      6.32896      8.18133      8.36419        -0.038005      0.195653     -0.082001
O	      6.38630      6.06805     10.27594        -0.071118      0.201635      0.116245
O	      8.57126      8.23635     10.53644        -0.117415     -0.027245     -0.148354
