# total energy = -225.63233757 eV
 
CRYSTAL
PRIMVEC
0.029578 6.292321 6.240527 
6.209464 0.022529 6.247580 
4.150533 4.210104 0.004405 
PRIMCOORD
36 1
Li	     10.33868      4.24824      6.26705         0.011173     -0.004951     -0.045791
Li	      4.13992      2.15253      2.09498        -0.021227      0.017215     -0.031383
Li	      4.14942      6.33204      2.29190         0.004139      0.030637      0.142081
Li	      6.08753      6.25851      4.11566         0.009070     -0.052446      0.040973
Li	      4.18895      4.34079      4.13176         0.012595      0.068952      0.033333
Li	      6.18327      4.22925      6.26575         0.011683     -0.016495      0.013331
Li	      4.17764      8.28158      4.07924        -0.019860     -0.091532      0.022711
Li	      2.21199      6.31075      4.09653         0.018888      0.033577     -0.011372
Li	      4.21952      4.20540      8.33778         0.003433     -0.007440     -0.026245
Sc	      2.12107      8.35908      6.25713        -0.007214     -0.012980     -0.083110
Ti	      2.02114      4.24379      6.10675        -0.142613      0.033204     -0.244998
Mn	      4.18620      2.12074      6.26136        -0.007748     -0.007986      0.008833
Cr	      6.22518      8.41923     10.35056         0.052459     -0.011302      0.003552
Cr	      2.12455      4.17719      2.14141        -0.063602     -0.008741      0.016588
Fe	      4.16589      6.30029     10.24800         0.028195     -0.030299      0.159366
Ni	      6.12034      4.22135      2.12929        -0.021865      0.066573     -0.060714
Ni	      4.20830      6.23954      6.19763         0.018956     -0.021086      0.154673
Ni	      6.24772      6.31158      8.34164        -0.007892      0.014050      0.002014
O	      4.16256      6.28541      4.27592        -0.009946      0.038656     -0.212577
O	      2.07505      2.20530      2.06716        -0.011769      0.116218      0.035404
O	      4.01489      4.21876      2.12698        -0.135856     -0.001898     -0.020969
O	      4.19459      2.02530      4.32380        -0.067617      0.089272      0.038503
O	      6.29579      4.14562      4.12959        -0.077850      0.023408      0.135726
O	      6.15129      2.13096      6.14165        -0.038443     -0.014543      0.017376
O	      8.31061      4.27304      6.32749         0.002942      0.045429      0.020090
O	      2.07873      4.23752      4.24108         0.015147     -0.028275      0.144451
O	      4.06796      4.07437      6.26657        -0.016597     -0.096808      0.017127
O	      6.34690      6.42597      6.27452         0.110984      0.011326     -0.097123
O	      6.44073      4.28504      8.35201         0.119277     -0.135942     -0.030498
O	      8.32291      6.22036      8.20202         0.165505     -0.000630     -0.039855
O	      2.09607      6.22977      6.30946        -0.098669     -0.068222     -0.137522
O	      4.24376      8.35665      6.24238         0.114121      0.106996      0.008450
O	      4.15140      6.29717      8.29510        -0.038507     -0.020998     -0.090185
O	      6.19811      8.43028      8.29540         0.013869     -0.008417     -0.021229
O	      6.15308      6.41789     10.35474         0.078925      0.020855      0.144474
O	      8.24692      8.49787     10.43199        -0.004088     -0.075378     -0.005484
