# total energy = -232.38508405 eV
 
CRYSTAL
PRIMVEC
0.034782 6.166582 6.336507 
6.422981 0.009208 6.362276 
4.284150 4.130030 0.004598 
PRIMCOORD
36 1
Li	      2.14638      2.04992      0.21191         0.010217      0.010041      0.021758
Li	      2.16750      0.10840      2.09557         0.063246     -0.000235     -0.008659
Li	      4.18185      2.06192      2.10615        -0.036195     -0.019837      0.031348
Li	      4.37692      6.12529      2.14588         0.057975      0.029195      0.043165
Li	      2.17279      2.01544      4.10471         0.026308     -0.013825     -0.014400
Li	      4.29058      4.16659      4.14642         0.026307     -0.013075     -0.054295
Li	      4.30746      2.05586      6.34728         0.030882      0.012911     -0.068739
Li	      4.26283      6.21765      6.37958        -0.054648      0.017308      0.004732
Li	      6.43307      6.21956      8.40365        -0.039632      0.010931      0.007635
Sc	      4.34975      8.15775      4.23042        -0.015381     -0.026295      0.048682
Ti	      6.40559      4.23545      6.36173        -0.148660      0.217202     -0.105944
Mn	      4.24270      0.06361      4.20407         0.028022      0.008003     -0.112093
Cr	      6.37017      2.08091      4.21995         0.023226      0.010656     -0.095611
Cr	      2.20091      6.15544      4.24049        -0.031918      0.056176      0.107732
Fe	      4.35005      4.16488      0.13812         0.020003      0.033631     -0.264105
Fe	      8.51282      8.22093      8.39498         0.048659     -0.022769      0.079847
Co	      6.45440      8.17586      6.39690        -0.016712     -0.024021      0.056028
Cu	      2.22270      4.07508      2.12827        -0.153141      0.179623      0.033707
O	      2.13699      2.15871      2.14823        -0.016828     -0.152141      0.008210
O	      4.18211      4.15624      2.00950         0.020188     -0.011223      0.288549
O	      4.43118      1.95811      4.19152        -0.097237      0.019296     -0.004713
O	      6.39061      4.06439      4.38444        -0.033193      0.072691      0.024693
O	      6.42584      2.09072      6.23195        -0.012599      0.027384     -0.021744
O	      8.47407      4.13815      6.21029         0.040261     -0.030814      0.160175
O	      2.15220      4.16414      4.26028         0.075220     -0.067609     -0.096348
O	      4.16466      6.20110      4.27035         0.045964     -0.075398     -0.029592
O	      4.41576      4.10993      6.45180         0.128690     -0.008701     -0.118581
O	      6.45133      6.09897      6.33300         0.009473     -0.229103      0.004084
O	      6.43910      4.12141      8.37416         0.014053     -0.017446      0.016507
O	      8.57249      6.19343      8.59669        -0.002058     -0.054175      0.038995
O	      2.10196      6.12449      6.28653         0.077730      0.058396     -0.025358
O	      4.36046      8.32087      6.28023        -0.074493     -0.085391     -0.013810
O	      4.31597      6.07865      8.62747         0.035213      0.117819     -0.018180
O	      6.55307      8.23870      8.48936        -0.066725      0.001523      0.078878
O	      6.54085      6.22364     10.66029         0.029341     -0.016456     -0.013703
O	      8.56609      8.25022     10.50464        -0.011559     -0.014273      0.011149
