# total energy = -46.20294497 eV
 
CRYSTAL
PRIMVEC
0.000038 -0.000217 -4.038912 
-2.019321 -4.321500 -2.019583 
-4.038674 -0.000070 0.000037 
PRIMCOORD
8 1
Li	     -3.02782     -1.08020     -3.02916         0.000580     -0.000552      0.002168
Li	     -5.04726     -3.23842     -3.02926        -0.000773     -0.000112     -0.000707
Mn	     -1.00874     -1.07816     -1.00951         0.000692     -0.011149     -0.002837
Ni	     -3.02797     -3.24020     -5.04887         0.003025      0.011343      0.002007
O	     -3.02789     -3.47730     -3.02945        -0.000645     -0.030619      0.000697
O	     -3.02785     -1.18976     -1.00949         0.001681      0.178308      0.001048
O	     -5.04704     -3.00155     -5.04871        -0.004011      0.032345     -0.000207
O	     -1.00886     -0.96765     -3.02915        -0.000551     -0.179564     -0.002170
