# total energy = -229.72146490 eV
 
CRYSTAL
PRIMVEC
0.007739 6.427923 6.147714 
6.385659 0.009709 6.145626 
4.243059 4.270177 0.020770 
PRIMCOORD
36 1
Li	      6.34242      0.19602      6.10856        -0.019503     -0.007277     -0.056371
Li	      8.35611      2.16809      6.06887         0.041301      0.023014     -0.009635
Li	      8.42485      4.30778      4.26877         0.044674     -0.026727      0.015855
Li	      6.37926      2.17948      8.03230        -0.027360      0.077344      0.055896
Li	      4.33622      4.15159      4.20763        -0.026414      0.012926      0.005415
Li	      4.39289      2.28333      6.05340        -0.035337      0.075227      0.098052
Li	      6.29451      4.14431      6.08075        -0.014760      0.052504      0.048105
Li	      2.25877      4.22973      6.08734         0.030725     -0.035962     -0.042236
Li	      4.25711      4.26463      8.13413         0.040943     -0.036128      0.032454
Sc	      4.27962      8.56912      8.18931        -0.024978     -0.074370     -0.246652
Ti	      8.53981      4.32029      8.06943        -0.178430      0.117596     -0.245165
Mn	      4.21719      8.55822      4.18987        -0.022698      0.024653     -0.284564
Cr	      2.12055      6.43388      4.17160        -0.027262      0.008628     -0.060747
Cr	      6.40497      6.41491      8.17886        -0.055855     -0.136592      0.008094
Fe	      6.32572      4.29126      2.06832         0.022583      0.023718     -0.591671
Fe	      4.29454      6.22647      6.13296        -0.033298      0.172104     -0.159973
Cu	      6.34150      2.21285      4.21223         0.103879     -0.044576     -0.292398
Cu	      6.48320      6.38433      4.22832        -0.149222     -0.107166     -0.108425
O	      6.39487      2.15565      6.07773        -0.032571     -0.004700      0.133531
O	      2.14619      2.23141      2.19095        -0.015661     -0.113698     -0.357666
O	      4.16596      4.26264      2.06568         0.072382     -0.054452     -0.003351
O	      4.25747      2.11314      4.08322         0.090975      0.036044      0.142240
O	      6.38840      4.28710      3.94493        -0.003951      0.055762      0.630000
O	      8.46774      4.25785      6.29818         0.050238      0.040129      0.329120
O	      1.96277      4.40116      4.08557         0.223436     -0.037670     -0.024220
O	      4.14325      6.60058      4.13373        -0.028346     -0.131902      0.001947
O	      4.25675      4.36077      6.12991         0.011408     -0.229327      0.002602
O	      6.29532      6.42704      6.18178         0.153266      0.044651      0.362331
O	      6.49896      4.38861      8.31767         0.074377      0.000133      0.025360
O	      8.41974      6.31594      8.28664         0.042868     -0.152100     -0.060552
O	      2.19702      6.42202      6.22796        -0.038029      0.014562      0.101004
O	      4.24139      8.49821      6.07864        -0.003722     -0.016030      0.241109
O	      4.30583      6.45760      8.14632        -0.129781      0.076360      0.156916
O	      6.37549      8.52309      8.32053        -0.020436      0.172278     -0.021511
O	      6.46215      6.27251     10.21060        -0.024016      0.110548      0.079329
O	      8.67637      8.44773     10.23109        -0.091426      0.070496      0.095778
