# total energy = -229.44715446 eV
 
CRYSTAL
PRIMVEC
0.017781 6.314154 6.268637 
6.392946 -0.010435 6.296834 
4.244151 4.210476 0.010703 
PRIMCOORD
36 1
Li	      6.47883      8.37363     10.51734         0.052274     -0.057001     -0.023151
Li	      6.20574      2.26586      8.30964        -0.022101     -0.000688     -0.025916
Li	      8.46663      6.41749      6.47179        -0.021526     -0.010464     -0.070916
Li	      6.31794      4.16356      6.44888        -0.030040      0.024201     -0.008923
Li	      8.48865      6.42768     10.25950        -0.114071      0.105258      0.036820
Li	      6.46443      8.27721      6.31619         0.019447      0.015519      0.013230
Li	      4.39518      6.25883      6.28764         0.026959     -0.043452      0.037659
Li	      8.63539      8.19124      8.29324         0.030347      0.039711     -0.038713
Li	      6.57496      6.22985      8.33650        -0.020602     -0.022709      0.044849
Sc	      6.35738      0.13257      6.30168         0.023456      0.079105     -0.049636
Ti	      2.22595      6.18138      8.28335         0.115749     -0.254547     -0.308757
Mn	      6.37020      6.31307      4.26396        -0.034386      0.053566      0.085890
Cr	      4.26828      8.39978      8.34285         0.073734     -0.034956     -0.038983
Cr	     10.64074      8.38009     10.45745         0.005059     -0.006258      0.029171
Fe	      8.53631     10.44152     10.53255        -0.078453      0.140908     -0.062318
Fe	      4.22278      4.27065      4.36143        -0.031365     -0.015481     -0.171956
Ni	      8.47551      2.12335      6.30527         0.009462     -0.045097      0.015045
Ni	      8.39535      4.31999      8.35911         0.090428     -0.117374     -0.055991
O	      8.52260      6.26086      8.39912         0.002957      0.158770      0.006665
O	      2.23606      2.04884      2.15453         0.001181     -0.041671      0.148973
O	      4.35575      4.11436      2.16611         0.050891     -0.017982      0.042135
O	      4.10856      2.09931      4.09020        -0.029166     -0.026623     -0.008000
O	      6.36157      4.34508      4.09733         0.027964     -0.001122     -0.041203
O	      6.45578      2.09606      6.24964        -0.132177     -0.013691      0.008559
O	      8.51645      4.19246      6.24645         0.014620      0.080330     -0.032449
O	      2.12268      4.05302      4.14111        -0.027838     -0.062440      0.104757
O	      4.42881      6.31971      4.18349         0.069695      0.030453     -0.012131
O	      4.24179      4.22138      6.17486         0.002719      0.011654      0.223345
O	      6.39545      6.30654      6.08238         0.001201     -0.036263     -0.113331
O	      6.41084      4.20203      8.50216        -0.130692      0.006142      0.019386
O	      2.11243      6.36207      6.42136        -0.005531     -0.135534      0.337312
O	      4.21326      8.45496      6.30924         0.103226     -0.025251     -0.000761
O	      4.14049      6.38199      8.46153        -0.128402      0.015791     -0.044417
O	      6.29894      8.53500      8.41517        -0.018299      0.259549      0.029469
O	      6.29217      6.21841     10.49968         0.098455      0.029056      0.011945
O	      8.61682      8.47420     10.50359         0.004824     -0.081409     -0.087659
