# total energy = -233.34796993 eV
 
CRYSTAL
PRIMVEC
0.036454 6.431236 6.060862 
6.542508 0.023961 6.072504 
4.363139 4.296704 0.014124 
PRIMCOORD
36 1
Li	      6.57843      4.30838      2.17330        -0.017099      0.015428     -0.046698
Li	      4.32208      6.39354      9.97227        -0.023831     -0.024674      0.004450
Li	      4.30289      6.51384      2.22975         0.008158     -0.037078     -0.025091
Li	      6.41830      6.41014      4.02817        -0.044310      0.005781     -0.026041
Li	      4.41741      4.38792      3.99564         0.005212      0.042536     -0.007240
Li	      6.56120      4.22641      9.96716         0.055613     -0.026427      0.086221
Li	      8.84144      6.45942      9.99167         0.030956     -0.005886      0.007125
Li	      4.53998      4.30768      8.16607         0.099130     -0.026226      0.032714
Li	      6.56613      6.37733      8.16607         0.048866      0.014474      0.012554
Sc	      8.74307      8.57592     12.08986        -0.014247     -0.024972      0.037955
Ti	      6.61097      6.41989     12.04452         0.015861     -0.040316     -0.076538
Mn	      2.23210      4.32674      6.01674         0.029287      0.051739      0.040717
Cr	      6.61484      8.62640     10.04529        -0.042699      0.024874     -0.071886
Cr	      2.16356      4.30129      2.11429         0.072345      0.006164      0.072582
Fe	      4.31516      2.12197      2.15611        -0.031781      0.077662     -0.076221
Fe	      8.67998      6.50616      6.11450         0.004022      0.017134     -0.144588
Fe	      4.54332      6.32088      6.02983         0.103242      0.066848      0.107159
Cu	      6.52539      4.30897      6.08767         0.033621      0.038907     -0.017501
O	      2.28279      2.24228      2.06022        -0.044853      0.044248     -0.022627
O	      4.23129      4.20430      1.95756        -0.071106      0.009206     -0.067360
O	      4.52870      2.13478      4.10923         0.024631      0.023737      0.085259
O	      6.55645      4.17195      4.16565         0.022450     -0.006054     -0.040119
O	      6.56566      1.97863      6.04097        -0.022376     -0.245020     -0.075502
O	      8.84152      4.32109      6.13089         0.089087     -0.045907     -0.036397
O	      2.22415      4.38997      4.11935        -0.037972     -0.066838     -0.038336
O	      4.37169      6.46953      4.20697        -0.000571      0.009336     -0.171669
O	      4.44158      4.28333      6.15192        -0.081919     -0.038735     -0.034358
O	      6.62068      6.64799      6.03969         0.012473      0.127006      0.030635
O	      6.71022      4.30211      8.00981        -0.040555      0.014154      0.058043
O	      8.76745      6.34258      7.99758         0.003627     -0.016204      0.144850
O	      2.04810      6.39442      6.10200        -0.129665      0.070509     -0.023838
O	      4.31055      8.69173      6.04822        -0.035435      0.007860      0.020598
O	      4.33432      6.58717      7.93946         0.000660     -0.080816      0.058661
O	      6.37682      8.63292      8.02847         0.075280      0.020100      0.018259
O	      6.54640      6.54279     10.19022        -0.062085      0.002975      0.181296
O	      8.62060      8.61063     10.09399        -0.034014     -0.005523      0.002933
