# total energy = -235.09751489 eV
 
CRYSTAL
PRIMVEC
-0.006907 6.320154 6.328890 
6.275818 -0.009961 6.332079 
4.172059 4.204025 0.004923 
PRIMCOORD
36 1
Li	     10.29413      4.22797      6.35055         0.047861      0.006383     -0.015999
Li	      8.30584      2.25910      6.31233        -0.012983     -0.036177     -0.021535
Li	      4.19968      2.10904      2.13745         0.038080     -0.033876      0.021103
Li	      8.36321      4.19558      4.39843         0.008040      0.002363      0.097741
Li	      4.17245      4.18141      4.21268         0.038944     -0.033389      0.025038
Li	      8.38531      6.17000      6.37339         0.014627      0.024375     -0.001721
Li	      6.41965      4.14249      6.37792        -0.048470      0.012583      0.022182
Li	      8.34455      8.36963      8.45417        -0.037565      0.010204     -0.020382
Li	      6.31305      6.29932      8.47232        -0.008118      0.021592      0.001129
Sc	      6.23810      2.05989      4.33473        -0.051001      0.016567     -0.024011
Ti	      4.19214      6.25824      6.42653         0.036624     -0.125246      0.378464
Mn	      6.27069      8.40618      6.34336         0.032816     -0.019300      0.056533
Cr	      6.24464      2.11504      8.36915        -0.012928     -0.006563     -0.080187
Cr	      8.38243      4.20498      8.36644         0.056682     -0.008134     -0.039522
Fe	      6.19549      4.17530      2.13838         0.096542      0.034611     -0.060941
Fe	      2.24440      2.04665      4.21346        -0.116235      0.004218      0.030878
Fe	      6.17193      4.29225     10.51304         0.033377      0.045788     -0.009744
Ni	      8.35372      6.30708     10.51702        -0.054597      0.004992      0.035368
O	      2.02965      2.09178      2.16798         0.009036      0.042165     -0.083906
O	      4.18941      4.30846      2.07620        -0.112559     -0.024373      0.015760
O	      4.14007      2.10595      4.23217         0.157723     -0.009399      0.015712
O	      6.27066      4.24628      4.13356        -0.001314     -0.025406      0.078858
O	      6.26003      2.13124      6.36910         0.027371     -0.028482      0.057488
O	      8.36083      4.18031      6.44500        -0.005095      0.033901      0.009933
O	      2.03483      4.16278      4.13803         0.029091     -0.048966     -0.031792
O	      4.19025      6.38568      4.19225         0.089613     -0.062369      0.013451
O	      4.02795      4.34504      6.30703         0.017369      0.113045     -0.022947
O	      6.15874      6.36635      6.25015        -0.047885      0.037667      0.063830
O	      6.34228      4.13447      8.49616        -0.010586      0.022806     -0.063713
O	      8.43221      6.20726      8.46419        -0.029097      0.040535     -0.093140
O	      2.18653      6.23729      6.32958         0.000675     -0.025740      0.030952
O	      4.31896      8.30782      6.22991        -0.039825     -0.013200      0.021692
O	      4.09857      6.35923      8.26283         0.033850     -0.006380     -0.380420
O	      6.22963      8.53718      8.49783         0.027343     -0.140289     -0.056205
O	      6.29346      6.27392     10.53407        -0.107899      0.050401      0.026568
O	      8.38824      8.37046     10.56561        -0.099505      0.123093      0.003485
