# total energy = -237.30908027 eV
 
CRYSTAL
PRIMVEC
0.011293 6.327449 6.256254 
6.498597 0.026175 6.240767 
4.343318 4.219064 0.006530 
PRIMCOORD
36 1
Li	      4.39009      8.45314      8.33670         0.018758     -0.044357     -0.015235
Li	      6.62877      8.38424     10.35346         0.025578     -0.010269     -0.019632
Li	     10.59579      6.42578      8.25530        -0.036063      0.056341     -0.015249
Li	      8.50953      4.46238      8.26860        -0.061909      0.027187      0.009028
Li	      8.67359      6.34584      6.45276        -0.011307      0.040508      0.016115
Li	      6.48590      4.27580      6.47028        -0.037778      0.020214     -0.007629
Li	      8.63716      6.42949     10.19607         0.044402     -0.014336     -0.007783
Li	      8.72265      8.23378      8.29378         0.048950     -0.016645     -0.006631
Li	      6.80714      6.30674      8.29331        -0.013307      0.004481     -0.034673
Sc	      4.31125      4.21201      4.13254        -0.020092      0.003665      0.054276
Ti	      4.39156      6.37122     10.37923         0.097069      0.028694     -0.121014
Mn	     10.81478      4.27939      6.29212        -0.028437      0.054320      0.004251
Cr	      6.52734     10.52578      8.34339         0.055166     -0.058878     -0.040102
Cr	      2.17363      2.11489      4.14464        -0.046393      0.023809      0.066046
Fe	      8.57215      2.17699      6.33400         0.069746     -0.058397     -0.058920
Fe	      6.48515      4.21535     10.24501         0.037048     -0.020413      0.081595
Fe	      6.59889      8.37700      6.36659        -0.005517     -0.028523     -0.112088
Fe	      4.39726      6.34321      6.37087         0.055838     -0.012537      0.066928
O	      2.22818      2.00806      2.08421         0.027532      0.030221      0.011701
O	      4.49658      4.19876      2.03109         0.043684     -0.039866     -0.019307
O	      4.21213      2.04494      4.15731         0.005026     -0.123595      0.006753
O	      6.52725      4.28897      4.10722         0.012245      0.013301     -0.068836
O	      6.63149      1.98610      6.21764        -0.081813     -0.190374     -0.029356
O	      8.59729      4.15862      6.12846         0.031859      0.052232     -0.060456
O	      2.17353      4.13981      4.22630        -0.005851     -0.034555      0.018695
O	      4.46920      6.35340      4.23021         0.117399      0.004516     -0.079953
O	      4.25249      4.22689      6.17563        -0.006303     -0.047768     -0.065659
O	      6.47782      6.41180      6.18245         0.137678     -0.002659     -0.142314
O	      6.50509      4.26014      8.41947        -0.018036      0.017175     -0.109906
O	      8.69262      6.32994      8.34783         0.016369     -0.010760      0.058254
O	      2.23725      6.35111      6.30912        -0.167590      0.015952      0.069691
O	      4.35148      8.56799      6.18618         0.011589      0.157008     -0.038153
O	      4.22226      6.33620      8.45253        -0.045605     -0.000980      0.335405
O	      6.49803      8.52506      8.27519        -0.037263      0.046579      0.123747
O	      6.33390      6.34010     10.48658        -0.254604      0.009266      0.099195
O	      8.75058      8.58201     10.50620         0.021931      0.109443      0.031214
