# total energy = -230.38564832 eV
 
CRYSTAL
PRIMVEC
-0.006940 6.267244 6.238431 
6.231768 -0.012800 6.244472 
4.154673 4.182373 -0.008664 
PRIMCOORD
36 1
Li	      8.24173      2.02584      6.24956         0.016636      0.009939     -0.081083
Li	      2.06128      6.27728      8.27375         0.090293      0.008200      0.006542
Li	      0.00570      2.05082      2.04703        -0.025342      0.097361     -0.009706
Li	      8.30991      4.19871      8.33705        -0.084754      0.040021      0.014075
Li	      6.18723      4.16434      6.27260         0.106722     -0.045663      0.015280
Li	      2.07873      6.23215      4.18149        -0.011202      0.031638      0.015165
Li	      2.15970      4.27702      6.23227        -0.149193      0.037818      0.026518
Li	      4.02096      6.09261      6.28469        -0.113990      0.069249      0.060796
Li	      4.10059      4.16394      8.25733         0.020139     -0.031737      0.046266
Sc	      4.13806      8.37441      8.22029        -0.017804     -0.408341     -0.083738
Ti	     10.26779      8.31365     10.33109        -0.255242     -0.017179     -0.063487
Mn	      0.08169      0.07019      0.03150        -0.034994     -0.018057     -0.371997
Mn	      6.18452      6.26457      4.17791         0.159035     -0.021555     -0.014820
Cr	      4.17786      2.12769      6.26653         0.152038     -0.517126     -0.107292
Cr	      6.26153      6.25242      8.27310        -0.023179     -0.047068      0.116884
Co	      4.11513      4.21574      4.17184         0.000695      0.745048      0.061956
Cu	      8.28432     10.39087     10.38891        -0.152963      0.057778     -0.036376
Ni	      6.34280      8.38532     10.38612         0.041470     -0.053163      0.034666
O	      2.08733      2.07294      2.29827        -0.037232      0.010511      0.073373
O	      4.12385      4.16730      2.18744        -0.021309      0.120767      0.465825
O	      4.06282      2.26925      4.18845        -0.117729     -1.082596      0.004431
O	      6.10839      4.27576      4.17517         0.871428      0.150708      0.008920
O	      6.21196      2.03413      6.15581        -0.077096      0.119985      0.125709
O	      8.46044      4.27504      6.09425        -0.010585      0.127159      0.128139
O	      2.08194      4.01665      4.18924        -0.882737     -0.066018      0.031354
O	      4.26314      6.27748      4.20217         0.007014      0.810547      0.036173
O	      4.15360      4.11605      6.10847        -0.029383      0.278534     -0.104510
O	      6.32175      6.22694      6.18619        -0.061522      0.035310      0.020124
O	      6.23769      4.21520      8.46559         0.025386     -0.007283      0.047428
O	      8.23860      6.26566      8.20128         0.040648     -0.062122     -0.056784
O	      1.94572      6.29798      6.26544         0.122958     -0.035768      0.073390
O	      4.13080      8.49897      6.15694         0.007347     -0.047925      0.078673
O	      4.22160      6.27781      8.41648        -0.021416      0.020025     -0.192804
O	      6.20969      8.25963      8.41087        -0.051208      0.031545     -0.230214
O	      6.30299      6.15682     10.29633         0.163288     -0.027356     -0.109141
O	      8.41025      8.27524     10.40627         0.353782     -0.313185     -0.029733
