# total energy = -230.66000416 eV
 
CRYSTAL
PRIMVEC
-0.001223 6.237571 6.309450 
6.258259 -0.001178 6.309200 
4.190302 4.176698 -0.018840 
PRIMCOORD
36 1
Li	      6.26910      8.27936     10.40894         0.032613     -0.019349     -0.065138
Li	      6.21034      2.21830      8.36770        -0.019806      0.043110     -0.017851
Li	      6.32615      6.19340      4.28588         0.036738     -0.006597      0.051265
Li	      8.33865      6.25514      6.28978         0.044850     -0.013018     -0.047781
Li	      6.20465      4.26029      6.45689        -0.026869      0.023101      0.105422
Li	      6.26248      4.15634     10.40095        -0.002127      0.008201     -0.051734
Li	      6.28810      8.21938      6.41323         0.050429     -0.010466      0.043466
Li	      4.21628      4.12919      8.34223         0.007541     -0.012709     -0.006664
Li	      6.27341      6.22553      8.35594         0.014733     -0.029047      0.015404
Sc	      4.25805      4.06517      4.25551         0.075318     -0.044929      0.030244
Ti	      8.21638      2.17352      6.27486        -0.550186      0.037791     -0.132668
Mn	      8.30696      6.25528     10.46602        -0.069142      0.004450      0.053386
Mn	      4.26317      6.25161      6.30668        -0.105138     -0.083590     -0.000598
Cr	      6.29276     10.35942      8.38694        -0.136125     -0.004999     -0.047177
Cr	      8.26479      4.19150      8.41562         0.017940      0.016409     -0.000857
Co	      4.20224     10.37136      6.27491        -0.045120      0.066059     -0.016698
Ni	      4.18180      6.27607     10.47390         0.065912     -0.137379      0.018712
Ni	      4.24123      8.29439      8.42182        -0.010290      0.137121      0.037110
O	      2.12482      2.10362      1.96396        -0.104466     -0.024189     -0.049789
O	      4.20630      4.15665      2.06215         0.003190      0.067632      0.052758
O	      4.16585      2.04689      4.21387        -0.015340      0.130399      0.071103
O	      6.31813      4.19348      4.03962        -0.103085      0.025138     -0.022878
O	      6.36529      2.02031      6.32854         0.472636      0.058180      0.012661
O	      8.34449      4.10060      6.30453         0.029503     -0.123968      0.097004
O	      2.11946      4.31751      4.09932        -0.001490      0.093595      0.016204
O	      4.04300      6.23697      4.35298        -0.009885      0.024808      0.050320
O	      4.19421      4.30501      6.27719         0.006136      0.088064     -0.009660
O	      6.08767      6.28232      6.26671        -0.011933     -0.004541     -0.001870
O	      6.37488      4.15600      8.41564        -0.020668      0.022831      0.023319
O	      8.35748      6.18578      8.58212         0.023589      0.053683      0.094685
O	      2.18450      6.31604      6.26443        -0.006516      0.041879     -0.056670
O	      4.08844      8.23857      6.34085        -0.044260     -0.100565     -0.164294
O	      4.10589      6.25188      8.31971         0.048626     -0.161468     -0.154107
O	      6.24736      8.44116      8.37437         0.184360      0.009072      0.001353
O	      6.36014      6.22483     10.60093         0.178336     -0.050829     -0.055129
O	      8.35686      8.24383     10.61976        -0.010004     -0.123880      0.127150
