# total energy = -232.46201191 eV
 
CRYSTAL
PRIMVEC
-0.010810 6.326429 6.406900 
6.171444 -0.034737 6.431269 
4.099079 4.218156 -0.007415 
PRIMCOORD
36 1
Li	      2.18551      6.22809      8.53610        -0.025495      0.030929     -0.017178
Li	      4.20367      8.19332      8.49824        -0.038478      0.012083     -0.012239
Li	      4.06715      6.33178     10.53583        -0.005923      0.012740     -0.052681
Li	      6.17508      6.26350      4.39241        -0.012886      0.031687     -0.019077
Li	      6.15869      4.33825      6.36662        -0.010551     -0.013408     -0.019273
Li	      4.07028      8.33154      4.37277         0.032000     -0.066608      0.030389
Li	      6.09779      8.28428      6.56548         0.013849      0.003840      0.013564
Li	      4.12954      6.38351      6.56878        -0.005341     -0.031344     -0.025570
Li	      6.07045      6.43532      8.53318         0.029949     -0.018149     -0.025093
Sc	      4.14881      4.23941      4.39460        -0.118937      0.076694      0.040304
Ti	      1.94296      4.16937      2.20501        -0.009835     -0.082389      0.408604
Mn	      4.13098     10.46244      6.39062         0.104727      0.023965     -0.020470
Mn	      8.14938      6.28551      6.34342         0.059635      0.036716     -0.008477
Cr	     10.24922      6.28473      8.55152         0.021081     -0.088944      0.127711
Cr	      4.08315      4.32381      8.48980         0.074792     -0.090082      0.029375
Co	      8.21679      8.40843     12.80960         0.042957     -0.121212      0.035821
Co	      6.17246      8.44471     10.58659        -0.218076     -0.031037      0.047595
Cu	      8.19346      6.34856     10.73780         0.122985     -0.223790     -0.051338
O	      1.98724      2.22820      1.99091        -0.042257      0.196200      0.047876
O	      3.95635      4.31466      2.22578        -0.090036      0.051104     -0.040482
O	      4.18494      2.10365      4.38145         0.001319     -0.011471      0.034166
O	      6.14983      4.02211      4.31015         0.102005      0.084315     -0.035325
O	      6.16211      1.94602      6.52394         0.026645     -0.038496      0.061769
O	      8.33213      4.05077      6.52872        -0.050755     -0.038369      0.009498
O	      1.99570      4.22497      4.08662        -0.029455     -0.000070     -0.283069
O	      4.01615      6.31470      4.13701         0.079923     -0.021722     -0.091311
O	      4.10655      4.24980      6.47364        -0.004117     -0.035158      0.025433
O	      6.30726      6.29330      6.32645        -0.112780      0.021968      0.037629
O	      6.18104      4.09921      8.51916         0.120528     -0.042412     -0.028566
O	      8.23434      6.23523      8.35383        -0.000929      0.005804     -0.177256
O	      1.94300      6.50008      6.47295        -0.027161      0.079165      0.116614
O	      3.98706      8.51453      6.38538        -0.024903      0.029518      0.007360
O	      4.14821      6.21551      8.55043         0.009109      0.069338     -0.001770
O	      6.23923      8.44177      8.57189        -0.013384      0.008692     -0.114265
O	      6.26709      6.56077     10.69138        -0.069158      0.011029     -0.023497
O	      8.14741      8.41196     10.75510         0.068953      0.168874     -0.026772
