# total energy = -232.26229811 eV
 
CRYSTAL
PRIMVEC
0.032435 6.244580 6.186793 
6.253655 0.035385 6.183976 
4.210825 4.202858 -0.018122 
PRIMCOORD
36 1
Li	      8.33088      8.40066     12.26167         0.001223     -0.018320     -0.003983
Li	      6.29680      2.12725      4.24076         0.019042      0.009126      0.052749
Li	      6.31467      6.34034      4.23015         0.000619      0.011804      0.002146
Li	      4.09760      4.19195      4.28167        -0.082035      0.011273     -0.013380
Li	      4.21057      2.12798      6.09426         0.003276      0.037629      0.025898
Li	      6.23395      4.22404      6.09975        -0.038395      0.035025     -0.010129
Li	      2.18521      6.22431      4.09635         0.012223     -0.014799     -0.044232
Li	      2.14578      4.09231      6.10529         0.013935     -0.012513      0.018696
Li	      6.37536      6.31415      8.16123         0.034552     -0.006759     -0.000983
Sc	      4.24385      2.07677      2.14329        -0.041466      0.086490     -0.092734
Ti	      6.26726      4.24822      2.14477        -0.139265      0.112873      0.127046
Mn	      8.27203      4.28327      8.21080        -0.001293      0.032003     -0.004019
Mn	      4.26068      6.25456      6.03094         0.003186      0.033363      0.040526
Cr	      6.31880      6.30805     12.30390         0.067875     -0.095635      0.047205
Cr	      8.39903      8.35881      8.22408         0.106485     -0.136488     -0.119036
Co	      8.38084      4.22925      4.16339         0.054110      0.029058      0.162657
Co	     10.46666      6.30900      8.22596         0.044846     -0.142399     -0.004305
Ni	      4.22614      8.35181      4.11010         0.086072      0.003239     -0.027528
O	      2.06398      2.05671      2.05951         0.138584     -0.097635     -0.004367
O	      4.28103      4.22416      2.02146         0.159013     -0.089505     -0.007603
O	      4.18681      2.00007      4.12324         0.012798     -0.113491      0.062871
O	      6.40291      4.21484      4.01250         0.058993      0.024112     -0.089119
O	      6.29455      2.00355      6.31190         0.007068      0.081525      0.027413
O	      8.48916      4.21527      6.20594        -0.008060     -0.079219     -0.093160
O	      2.06562      4.21181      3.88598         0.117001      0.005059      0.025813
O	      4.19827      6.30095      3.97839        -0.017405     -0.147584     -0.185294
O	      4.17903      4.31362      6.24659        -0.051587     -0.027429      0.015912
O	      6.11323      6.28712      6.21122         0.035368      0.027603     -0.006307
O	      6.21471      4.02457      8.21608        -0.073906      0.167324     -0.116014
O	      8.50702      6.33837      8.20448        -0.177745      0.001979     -0.035810
O	      2.16718      6.27370      6.30341        -0.027000     -0.011411      0.018254
O	      4.24115      8.33687      6.19394         0.020376      0.026556      0.137022
O	      4.13364      6.22901      8.37583        -0.033609      0.003031      0.020979
O	      6.34695      8.51097      8.25713        -0.032091      0.018353      0.042902
O	      6.14744      6.26129     10.35988        -0.129440      0.121824     -0.046088
O	      8.42315      8.52031     10.22182        -0.143349      0.113936      0.076001
