# total energy = -138.92307245 eV
 
CRYSTAL
PRIMVEC
4.036983 -0.000057 0.000016 
-2.018424 -4.314895 2.027041 
2.018519 -4.311426 -0.000000 
PRIMCOORD
24 1
Li	     -1.01249     -5.41166     -1.01697        -0.001343     -0.031098     -0.067443
Li	      3.02471     -5.42558     -5.07656        -0.001510     -0.013001      0.028684
Li	      3.02446     -5.39259     -9.10121        -0.001503      0.013314      0.047670
Li	      3.02425     -3.20302     -3.04449         0.001985     -0.020459     -0.038410
Li	      3.02442     -3.16689     -7.07042         0.003233      0.050358      0.028390
Li	     -1.01261     -3.27207      0.99520         0.001834      0.008845      0.009577
Mn	      3.02437     -1.06148     -1.03495         0.001031     -0.052374     -0.006751
Mn	      1.00600     -5.35895     -3.05024        -0.000432     -0.101877     -0.143706
Mn	      3.02456     -7.58120     -7.07007        -0.001311      0.120071      0.098102
Ni	      1.00591     -5.41403     -7.07161         0.002428      0.023498      0.059989
Ni	      1.00566     -3.20471     -1.01382         0.001443     -0.119216     -0.046045
Ni	      1.00535     -3.23264     -5.07707         0.012091     -0.015465     -0.004102
O	      1.00620     -3.41688      1.07792        -0.001474     -0.068061      0.073578
O	      1.00584     -3.45443     -3.03078         0.000471     -0.014404      0.031973
O	      5.04294     -3.40406     -7.17459        -0.005629      0.130927     -0.181391
O	      3.02444     -5.51267     -3.02725         0.000171      0.224841      0.016303
O	      3.02463     -5.66409     -7.08722        -0.001188     -0.088865     -0.038662
O	      1.00595     -1.15327     -1.02726        -0.001031      0.208685      0.002266
O	      3.02438     -2.97355     -1.00293        -0.001439      0.236810      0.043508
O	      3.02470     -2.99008     -5.07432        -0.009610      0.093166     -0.007082
O	      1.00585     -7.44908     -7.08873         0.005395     -0.197182     -0.028083
O	      1.00615     -5.25695     -1.00243         0.001292     -0.162350      0.217566
O	      1.00620     -5.26695     -4.97913        -0.001032     -0.157697      0.134766
O	      5.04284     -5.21610     -9.19858        -0.003871     -0.068467     -0.230696
