# total energy = -233.98454346 eV
 
CRYSTAL
PRIMVEC
-0.038078 6.278809 6.323480 
6.269400 -0.055677 6.340771 
4.154331 4.172028 -0.011233 
PRIMCOORD
36 1
Li	      8.35074      8.27046     12.55176        -0.020636     -0.044255     -0.037201
Li	      6.32379     10.27167      8.61859        -0.056317      0.007504      0.065332
Li	      8.15570      4.13502      4.29333         0.007919      0.053142      0.072740
Li	      6.28669      2.23597      4.19045         0.018018      0.001989      0.084285
Li	      6.27983      6.02972      4.32079         0.024912     -0.036627      0.005916
Li	      4.32601      4.13588      4.29946         0.017977     -0.028828      0.000159
Li	      6.22414      4.15177      6.07687        -0.001412     -0.027815      0.003650
Li	      2.08584      4.19072      6.32522        -0.047075      0.024943     -0.064430
Li	      8.21266      8.37856      8.41158         0.039689     -0.029569     -0.005386
Sc	      6.15986      6.27061      8.43761         0.003308      0.018716     -0.117564
Ti	      0.13043      2.05902      2.07794         0.163778     -0.102863     -0.161059
Mn	      4.16389      2.05303      2.20163        -0.098307      0.075999     -0.110108
Mn	      4.13910      2.14456      6.22049         0.055835      0.091737      0.009080
Cr	      8.34299      4.17729      8.42249        -0.038483      0.150793      0.089225
Cr	      4.10006      8.34228      4.26755         0.059886      0.011534     -0.032941
Co	      2.04062      6.29273      4.26364         0.026156     -0.009964      0.010961
Co	      4.07588      6.15827      6.28728         0.116178      0.048962      0.062196
Co	      0.02374      6.26659      6.29149        -0.187334      0.157797     -0.005559
O	      6.26347      4.14278      4.18949         0.025471     -0.047352      0.014556
O	      2.04896      2.20886      2.09208        -0.065257      0.014786     -0.003436
O	      4.08177      4.27232      2.12209         0.108524     -0.011506     -0.046710
O	      4.14787      2.07879      4.28970         0.002616     -0.023764      0.099409
O	      6.15657      2.07817      6.50981        -0.038114     -0.062957      0.185728
O	      8.39825      4.29232      6.42091         0.522528      0.017313     -0.036804
O	      1.96800      4.38064      4.10139        -0.053860     -0.066096     -0.095595
O	      4.09198      6.30453      4.09597         0.054057      0.132129     -0.140043
O	      4.13607      4.06643      6.35201        -0.008676     -0.028239      0.032760
O	      6.34118      6.22640      6.35119         0.035993      0.017755      0.063417
O	      6.31502      4.05338      8.54540         0.113904     -0.116451      0.011734
O	      8.38300      6.20966      8.38693         0.056261     -0.195297     -0.111319
O	      2.05280      6.24906      6.21574        -0.561681     -0.060505      0.026061
O	      4.10676      8.30635      6.27148         0.030350      0.044071      0.039893
O	      4.14822      6.27635      8.37706        -0.058629      0.124919     -0.049623
O	      6.03725      8.30530      8.47098        -0.146416     -0.122556     -0.051738
O	      6.27341      6.12890     10.52095        -0.089454     -0.058293      0.233222
O	      8.37697      8.11017     10.53657        -0.011709      0.078849     -0.040810
