# total energy = -227.94476504 eV
 
CRYSTAL
PRIMVEC
0.019938 6.140072 6.264536 
6.444673 0.000071 6.284746 
4.312985 4.123136 -0.016436 
PRIMCOORD
36 1
Li	      0.06207      6.11423      6.25476         0.076057      0.002307      0.017922
Li	      8.62453      2.09842      6.28807        -0.018060     -0.015581      0.063361
Li	     10.64043      6.18234      8.34659         0.015885     -0.015416      0.000555
Li	      6.32705      6.23738      4.19291        -0.033310      0.031994     -0.020806
Li	      8.59236      6.19158      6.43180        -0.047054      0.011387     -0.024948
Li	      4.34848      8.14247      4.26704        -0.068146     -0.011578      0.101538
Li	      6.41573      8.08010      6.20820         0.061658     -0.000799     -0.036724
Li	      4.40715      6.19363      6.17286        -0.024423      0.013762     -0.076625
Li	      6.60080      6.11984      8.31776        -0.030808     -0.012588      0.013297
Sc	      8.69580      4.10265      4.30044         0.027846      0.039430      0.021076
Ti	      2.18728      6.24990      8.11780        -0.149811      0.179649     -0.696484
Mn	      4.37509      8.20161      8.22619        -0.003989      0.068797     -0.032914
Mn	      4.31080      4.17394      4.19874        -0.036152      0.007902     -0.162658
Cr	      6.50880      8.19468     10.48187        -0.051896     -0.031217      0.016792
Cr	      6.39554      4.17191      6.39265        -0.074822      0.054259     -0.049191
Cu	      8.59492      4.13872      8.35337        -0.051303     -0.113740      0.079959
Cu	      8.58803      8.13872      8.30538        -0.025184      0.044112     -0.045304
Ni	      2.17470      6.15726      4.19269         0.018723     -0.057396      0.237273
O	      8.58589      6.12615      8.43113        -0.009011      0.049623     -0.183150
O	      2.20440      1.99665      2.08792        -0.013736     -0.232310     -0.004480
O	      4.54061      4.07364      2.15500         0.296365     -0.009820     -0.192599
O	      4.44808      2.12880      3.99467         0.044187     -0.037719      0.025613
O	      6.38734      4.08638      4.23259         0.172783      0.018859     -0.015332
O	      6.40887      2.22030      6.16555        -0.024056      0.031634      0.061750
O	      8.44831      4.14931      6.36430        -0.079429      0.040294     -0.012169
O	      2.38415      4.09973      4.06261        -0.124525     -0.071187     -0.115719
O	      4.27436      6.03321      4.15510         0.092868      0.105475     -0.047144
O	      4.36694      4.10185      6.08460         0.078915     -0.042622      0.333359
O	      6.45476      5.99246      6.21511         0.022171     -0.080693      0.055100
O	      6.23530      4.06780      8.22237        -0.042511     -0.001313     -0.107602
O	      2.14657      6.14548      6.31575         0.047923      0.031395      0.730271
O	      4.37034      8.20727      6.38785         0.026730     -0.015298      0.027631
O	      4.16267      6.16497      8.43365        -0.020685      0.025405      0.030082
O	      6.57493      8.29550      8.41251         0.003573     -0.065368      0.058581
O	      6.42594      6.18881     10.50278        -0.042726     -0.004904     -0.015329
O	      8.53010      8.21926     10.54208        -0.014045      0.063268     -0.034978
