# total energy = -226.71645932 eV
 
CRYSTAL
PRIMVEC
-0.004202 6.221894 6.192606 
6.467515 0.013067 6.175025 
4.340315 4.165110 -0.019955 
PRIMCOORD
36 1
Li	      2.27744      8.22884      6.17835         0.049042     -0.053949     -0.050766
Li	      4.22971      8.16067      8.25226        -0.037240     -0.037862     -0.053467
Li	      4.48141      6.29872     10.23902         0.085039     -0.008740      0.073460
Li	      6.46786      8.22592     10.29577         0.032446     -0.000055      0.013371
Li	      2.18526      2.02708      4.06929        -0.027439     -0.011210      0.024281
Li	     10.66799      8.37491     10.37685         0.032130     -0.021604      0.063161
Li	      8.50920      6.30644     10.32905        -0.032288      0.014857      0.010643
Li	      4.18780      6.30199      6.10523         0.006031      0.161664      0.002174
Li	      6.44976      6.25769      8.38951         0.061186      0.007747     -0.038551
Sc	      6.40068      8.27335      6.15517        -0.460747     -0.031444     -0.022272
Ti	      4.37497      4.15504      4.15840         0.048728      0.150353      0.032264
Mn	      2.15769      4.09341      2.10247        -0.093329     -0.042339      0.043632
Mn	      6.55859      4.19684      6.12243        -0.043565      0.021998      0.068322
Cr	     10.79595      6.25715      8.22413         0.068089     -0.005335      0.069306
Cr	      8.62995      8.42691      8.40462         0.027742      0.030176      0.111558
Cu	     10.78206     10.31936     12.27203         0.025836      0.131910     -0.078465
Cu	      2.23503      6.26049      8.23951         0.047624     -0.037453      0.049299
Cu	      4.33143      2.05675      6.09258        -0.074611     -0.006771      0.011726
O	      4.43367      6.08633      8.20940        -0.001680     -0.072954      0.037171
O	      6.45798      6.22260     10.39802         0.035920      0.066889     -0.063098
O	      1.99211      1.97379      2.06039         0.069366      0.121592     -0.010502
O	      4.12488      4.23542      2.08348         0.000509     -0.062865     -0.063441
O	      4.32563      2.22929      4.06833        -0.024328     -0.031433     -0.015592
O	      6.35068      4.15801      4.18353        -0.115975     -0.016068     -0.234668
O	      6.33038      2.20162      6.22679         0.173279      0.236628     -0.166016
O	      8.68672      4.05776      6.34130         0.020261      0.116320     -0.080888
O	      2.28948      4.15607      4.05110         0.066969     -0.021847      0.060944
O	      4.32844      6.12219      4.01805        -0.051820     -0.133741      0.011929
O	      4.27229      4.31896      6.09094        -0.036512     -0.010475      0.016462
O	      6.67389      6.14555      6.14072        -0.044179      0.008483      0.039787
O	      6.57747      4.11589      8.13585        -0.138492      0.072649      0.128392
O	      8.77384      6.46215      8.13938        -0.074434      0.076999     -0.044453
O	      2.00385      6.20593      6.24135         0.157415      0.125006      0.047499
O	      4.37777      8.31409      6.21880         0.148716     -0.598856      0.037562
O	      6.70749      8.39786      8.22259         0.083915     -0.122789      0.140403
O	      8.66105      8.33754     10.16434         0.016395     -0.015480     -0.171166
