# total energy = -233.84821196 eV
 
CRYSTAL
PRIMVEC
0.023226 6.188262 6.365506 
6.393223 0.005674 6.382963 
4.260790 4.135566 0.005212 
PRIMCOORD
36 1
Li	      8.42943      4.16063      4.25966        -0.024670      0.014136      0.053743
Li	     10.58146      6.33252      8.59355        -0.054696      0.100701      0.042040
Li	      2.03200      4.18047      2.29589        -0.039859      0.005966     -0.010410
Li	      2.17738      2.19066      4.19798         0.048984      0.045075     -0.024284
Li	      4.20653      4.08721      4.21391        -0.032303     -0.031560     -0.044089
Li	      6.37100      4.14391      6.42297        -0.009384     -0.041223      0.063088
Li	      6.54067      4.11363     10.47383         0.063124      0.025284      0.038118
Li	      2.14451      4.09068      6.21127         0.043974     -0.043812     -0.049858
Li	      8.69369      8.20312      8.60493         0.045076      0.023038      0.020461
Sc	      8.43800      2.16952      6.35572        -0.007303      0.118745      0.052341
Ti	      4.41166      6.02306      6.22798         0.042729     -0.315129     -0.272074
Mn	      4.26197      2.05498      2.17454        -0.095956     -0.052824      0.089718
Mn	      6.42836      6.14960      8.50206         0.122719     -0.057122      0.019557
Cr	      6.44598     10.24907      8.54561         0.039967      0.038043     -0.023302
Cr	      2.15395      6.13942      4.23039         0.047310     -0.070515     -0.113018
Fe	     10.58790      4.17048      6.38221         0.010820     -0.069134      0.038525
Co	      4.25558      2.11676      6.38115         0.129004     -0.086941      0.070659
Cu	      6.40350      2.11831      4.27115        -0.035872     -0.023926      0.094684
O	      2.30551      1.95523      2.13966         0.065623     -0.022888     -0.001667
O	      4.40901      3.96997      2.04179         0.019719     -0.002589      0.061837
O	      4.35823      2.05018      4.10740         0.007682     -0.055764     -0.175870
O	      6.42629      4.04325      4.08890        -0.023115      0.072962     -0.005450
O	      6.39737      2.00171      6.59851        -0.309157      0.123902      0.175211
O	      8.61659      4.20887      6.36898        -0.148846      0.385549      0.013318
O	      2.15133      4.21134      4.24403        -0.005582      0.023773      0.001605
O	      4.18893      6.22343      4.37536         0.009449     -0.025280      0.197986
O	      4.27674      4.18602      6.38414         0.039065     -0.010481     -0.063709
O	      6.27183      6.18325      6.32626         0.110665     -0.019473     -0.095004
O	      6.39798      4.29502      8.50847         0.001069      0.042566      0.022533
O	      8.42093      6.23662      8.57964        -0.078787      0.046089      0.128716
O	      2.20641      6.20336      6.37618        -0.028709      0.013686      0.015098
O	      4.20437      8.25152      6.53698        -0.005214     -0.071460     -0.123348
O	      4.25739      6.27313      8.38530         0.016155     -0.062136     -0.019664
O	      6.21413      8.18409      8.36681         0.009262      0.004921     -0.176476
O	      6.52401      6.24664     10.75920        -0.027818     -0.057058     -0.000033
O	      8.47688      8.21030     10.68843         0.054875      0.034882     -0.000982
