# total energy = -234.06062686 eV
 
CRYSTAL
PRIMVEC
0.035913 6.195172 6.389266 
6.206921 0.034427 6.390732 
4.152085 4.145107 0.008723 
PRIMCOORD
36 1
Li	     10.36915     10.35292     12.77043        -0.030753      0.033471     -0.035520
Li	      8.27463      2.17249      6.34807        -0.044973      0.068916     -0.027792
Li	      8.27515      4.13021      4.33509         0.010966      0.038222      0.106846
Li	      2.06887      4.14105      2.16937        -0.109422      0.063841      0.086385
Li	      2.09799      2.13952      4.24794        -0.022115      0.039600     -0.038020
Li	      6.27211      4.11860      6.39951         0.058220     -0.045418      0.071046
Li	      2.08479      6.17924      4.26002         0.003481     -0.044292     -0.007924
Li	      2.08818      4.13867      6.30665        -0.015432     -0.061417     -0.149693
Li	      8.34334      8.26059      8.56198         0.101329     -0.036029      0.032935
Sc	      4.19132      6.13667      6.29965         0.143075     -0.102423     -0.266310
Ti	      2.09462      6.21041      8.46479         0.010228      0.172571     -0.030409
Mn	      4.06841      2.15882      2.08591        -0.029433      0.000083     -0.071347
Mn	      6.36601      8.28641     10.72401        -0.068429     -0.015862      0.285774
Cr	      8.32778      6.16040      6.41877        -0.016155     -0.029927      0.248170
Cr	      0.05464      4.15530      4.28178         0.011310     -0.004353     -0.089209
Fe	      6.30271      6.17302      8.52749         0.059881     -0.160093     -0.117475
Co	      6.20092      2.13921      8.51083        -0.070806      0.479317      0.263071
Ni	      4.06680      4.15420      4.27769         0.074302      0.098724      0.001545
O	      1.97464      1.97884      2.15529         1.382568     -0.180544      0.024620
O	      4.20814      4.26764      2.18117         0.039428     -1.321519     -0.092042
O	      4.29804      2.11268      4.40064         0.013511     -0.147384      0.018512
O	      6.21176      4.04325      4.13650         0.176405     -0.036883     -0.122172
O	      6.13321      2.10136      6.54052         0.130497     -0.074722     -1.069866
O	      8.29579      4.36136      6.39457         0.064696     -0.045210     -0.082712
O	      2.03509      4.14441      4.25473        -0.121962      0.002188     -0.003969
O	      4.15461      6.25820      4.17814        -0.047242      0.049296      0.725798
O	      4.16935      4.05994      6.32174        -0.038269     -0.008258      0.055100
O	      6.28765      6.18749      6.53743        -0.062948      0.001783     -0.183668
O	      6.22472      4.16940      8.63975        -0.063739      0.712280      0.146797
O	      8.33329      6.27006      8.35865        -0.900590      0.091058     -0.194838
O	      2.13603      6.17192      6.59261        -0.109080     -0.059258      0.164615
O	      4.15647      8.23642      6.30820        -0.017841      0.075993      0.107085
O	      4.12376      6.23170      8.45259        -0.077848      0.302983      0.070416
O	      6.21198      8.31690      8.54101        -0.408991      0.072333      0.065448
O	      6.25813      6.26047     10.50852         0.006293      0.074482      0.112794
O	      8.27242      8.29239     10.70057        -0.030161     -0.003551     -0.003990
