# total energy = -238.09945646 eV
 
CRYSTAL
PRIMVEC
0.025820 6.213994 6.572499 
6.191415 0.025649 6.574431 
4.146295 4.161365 -0.001576 
PRIMCOORD
36 1
Li	      8.36936      8.38437     13.08749        -0.016614     -0.039865     -0.043361
Li	      4.07876      2.03825      2.18374         0.006459     -0.045171      0.046142
Li	      8.29416     10.33122     10.92336         0.032789     -0.006970     -0.078056
Li	      2.14088      4.11828      2.18157         0.013136      0.035571      0.076337
Li	      2.08948      2.07570      4.27260         0.038075     -0.021082      0.004647
Li	      6.20662      4.17523      6.52114        -0.083036      0.071884     -0.064493
Li	      4.11354      8.31493      4.48348        -0.027820      0.030432     -0.013596
Li	      4.14583      6.22332      6.73977         0.022995     -0.069079      0.104701
Li	      4.14496      4.20576      8.81216         0.004770      0.029258      0.058389
Sc	      8.25088      6.19095      6.55686        -0.051066     -0.030675      0.047808
Ti	      6.31879      2.24264      8.75281         0.180897      0.130085      0.061035
Mn	      8.27170      6.25595     10.90868        -0.071999      0.110725     -0.005871
Mn	      6.16586      8.32299      6.56341         0.050402     -0.049512      0.025262
Cr	      4.14373      4.18215      4.35281        -0.022930      0.048251     -0.077723
Cr	      6.14593      6.18785      8.76185         0.015833      0.025887      0.060418
Fe	      6.26444      8.35158     10.84008         0.033451     -0.178262      0.058107
Co	      2.18593      6.21556      8.79650         0.018512      0.018225     -0.044735
Co	      4.13957      4.11919      0.13134        -0.025575     -0.309705     -0.040481
O	      1.96769      2.08665      2.23396        -0.166883      0.063347      0.020906
O	      4.20532      4.27460      2.27351        -0.084128      0.046990      0.064692
O	      4.21017      2.17188      4.46082        -0.040582     -0.015864     -0.003127
O	      6.16824      4.10347      4.42387        -0.016180      0.122217      0.093502
O	      6.20547      1.98310      6.72379         0.010447     -0.023877     -0.007619
O	      8.46251      4.15161      6.52666         0.056949      0.084743      0.033711
O	      2.13648      4.28237      4.35190         0.008633     -0.071033     -0.053508
O	      4.06612      6.22473      4.18392         0.033099      0.002620     -0.045983
O	      3.99492      4.16899      6.38928        -0.029324      0.013278     -0.005100
O	      6.17233      6.32507      6.71938         0.031551      0.001742     -0.049285
O	      6.19777      4.12136      8.67739         0.061364     -0.179055     -0.045541
O	      8.28381      6.25258      8.66169        -0.017709      0.018568     -0.033954
O	      1.94957      6.13155      6.62369        -0.087649      0.074606      0.045265
O	      4.24578      8.41728      6.59285        -0.080959      0.170355     -0.009821
O	      4.18029      6.20168      8.78640         0.133223      0.012274      0.005770
O	      6.21375      8.23660      8.86457        -0.012887     -0.050602     -0.120315
O	      6.29651      6.26341     10.81567         0.009967     -0.007239     -0.065484
O	      8.21536      8.18000     11.00908         0.072788     -0.013068      0.001361
