# total energy = -230.79882093 eV
 
CRYSTAL
PRIMVEC
-0.018854 6.501192 6.274502 
6.275960 -0.006348 6.261393 
4.154838 4.295968 0.025560 
PRIMCOORD
36 1
Li	      8.25356      2.20001      6.30345        -0.109778      0.092535     -0.052346
Li	      6.16988      4.38985      2.23469         0.040699      0.027740      0.185348
Li	      8.17866      4.26368      4.31633        -0.039839      0.001421      0.079279
Li	      6.27436      2.30202      4.25261        -0.031639      0.220903      0.114405
Li	      0.13773      2.06190      2.12610        -0.066311     -0.098215     -0.056038
Li	      6.15841      6.38671      4.16377         0.036987     -0.179864     -0.016129
Li	      4.28677      4.42238      4.19511         0.115929      0.031932     -0.009193
Li	      6.29114      4.26311      6.13218         0.014308     -0.100342     -0.021239
Li	      2.13420      6.38844      4.22735         0.036729     -0.007009     -0.085631
Sc	      4.08073      2.17631      2.23735         0.096783      0.003540      0.239611
Ti	      8.24996      8.64439      8.48757         0.008417     -0.099746      0.616963
Mn	      6.29833      6.55731     12.50129        -0.032088     -0.020749     -0.212742
Mn	      4.18530      2.19153      6.15005         0.281683     -0.099698      0.018503
Cr	      0.03066      4.28067      4.16904        -0.332376      0.055827     -0.060943
Cr	      4.12736      6.46891      6.22237         0.030669      0.064820     -0.046242
Fe	      6.26936      6.47943      8.47080         0.045697     -0.031476      0.117621
Cu	      2.08116      4.18898      2.09167         0.058155     -0.074078     -0.259983
Cu	      2.11189      4.35315      6.17433        -0.032836      0.005832     -0.011480
O	      6.25423      4.29785      4.22863        -0.067278      0.110841     -0.062240
O	      2.11926      2.10456      2.07509        -0.053497      0.087719     -0.066131
O	      4.23663      4.24179      1.91563        -0.195122     -0.066858      0.206327
O	      4.14490      2.17256      4.26397        -0.070268      0.026681     -0.190931
O	      6.15290      2.08832      6.19313        -0.098277      0.224139      0.132329
O	      8.50290      4.29198      6.37157        -0.131343     -0.077270      0.042547
O	      1.97037      4.34627      3.98452         0.256351     -0.058299      0.083572
O	      4.13275      6.58045      4.26864         0.052778      0.011862      0.048576
O	      4.11864      4.46129      6.36164        -0.066850      0.093365      0.015090
O	      6.25763      6.60897      6.38130        -0.090520     -0.033361     -0.040958
O	      6.13123      4.45600      8.39741         0.064492      0.003187     -0.045633
O	      8.27970      6.66859      8.19193         0.035872      0.217864      0.035023
O	      2.05662      6.34093      6.25540         0.169037      0.007704     -0.034098
O	      4.21307      8.54019      6.25291         0.020742     -0.225883     -0.004239
O	      4.22764      6.43234      8.29567        -0.105593     -0.045286     -0.081011
O	      6.31507      8.49943      8.54747         0.031415      0.085024     -0.063193
O	      6.26299      6.33319     10.49229         0.040028     -0.154754     -0.043072
O	      8.40332      8.60710     10.34980         0.086843     -0.000050     -0.471722
