# total energy = -237.04262244 eV
 
CRYSTAL
PRIMVEC
-0.013971 6.416781 6.270072 
6.370622 0.014635 6.240617 
4.256236 4.267885 0.000546 
PRIMCOORD
36 1
Li	      4.30631      2.12140      2.26344         0.034133     -0.005683     -0.072329
Li	      4.09795      0.33659      4.13127        -0.010963     -0.018971      0.048717
Li	      6.09933      2.23020      4.15670         0.005579      0.058343      0.025263
Li	      2.34454      2.12097      4.24230        -0.077645      0.000695      0.020364
Li	      4.24395      4.05499      4.32694        -0.001129      0.089374      0.027880
Li	      4.18526      2.22995      6.07099        -0.033281      0.032902      0.023657
Li	      0.09081      4.24167      4.23722         0.011771     -0.052626     -0.003406
Li	      6.37902      8.45703      6.22252        -0.016276     -0.026443      0.018175
Li	      4.33994      6.36037      6.23457        -0.018230     -0.013202      0.002836
Sc	      8.53309      8.57360     12.34538         0.086106     -0.012104     -0.067443
Ti	      4.27937      6.42008      2.14776         0.033485     -0.019706      0.310537
Mn	      2.15136      6.32263      4.20733         0.104425     -0.059682     -0.023145
Mn	      6.29617      6.48938      8.34411        -0.058796      0.046301     -0.064205
Cr	      6.39345      4.22641      2.19290         0.005439      0.021896     -0.028908
Cr	      2.15869      4.26295      2.11944         0.011050      0.011514      0.038829
Fe	      6.34073      6.38232     12.40233         0.011363      0.097974     -0.020338
Fe	      4.16421      4.34211      8.28075         0.058595     -0.079245      0.120119
Co	      6.28642      4.36585      6.11041        -0.045626      0.083059     -0.130564
O	      1.97494      2.16086      2.08637        -0.080154     -0.033714     -0.021812
O	      4.24338      4.42065      2.00072         0.026508      0.046015      0.005264
O	      4.21408      2.18011      4.15230         0.005260     -0.027448     -0.009413
O	      6.37291      4.29095      4.11479         0.001789     -0.011073     -0.000132
O	      6.42667      2.10990      6.35078        -0.029683     -0.047908      0.060605
O	      8.58067      4.23078      6.31038        -0.065250     -0.008611      0.077935
O	      2.12681      4.40223      4.08102         0.029598      0.017999     -0.095667
O	      4.13736      6.40243      4.02907         0.030325     -0.024704     -0.342260
O	      4.27810      4.28210      6.38981         0.062838     -0.034862     -0.092201
O	      6.32492      6.40560      6.46803         0.015321      0.002793      0.053208
O	      6.45993      4.20688      8.30714         0.004037     -0.116210     -0.000917
O	      8.54433      6.33167      8.26552         0.091847     -0.013695     -0.033712
O	      2.01834      6.46542      6.37215         0.007386      0.033969      0.080218
O	      4.19347      8.69529      6.27379        -0.077868     -0.074027     -0.007902
O	      4.18876      6.31419      8.40686        -0.011926      0.116077      0.039755
O	      6.44748      8.60564      8.35868        -0.117207      0.025580      0.019558
O	      6.50191      6.40470     10.36258         0.003194     -0.006503      0.010671
O	      8.56628      8.30627     10.32435         0.003985      0.001928      0.030762
