# total energy = -236.23067453 eV
 
CRYSTAL
PRIMVEC
0.007802 6.363115 6.336321 
6.212108 0.009715 6.334624 
4.154673 4.254284 -0.006881 
PRIMCOORD
36 1
Li	      6.15789      0.08166      6.23881        -0.001457      0.013243     -0.018130
Li	      8.28701      8.48737     12.60106        -0.018847      0.016033     -0.060373
Li	      6.25626      8.43744     10.57617        -0.003734     -0.000572      0.004582
Li	      2.05549      4.27747      2.21612        -0.031139     -0.020923      0.041991
Li	      4.17157      4.22378      4.12842         0.028187     -0.028772      0.036729
Li	      6.27106      4.21947      6.29096        -0.021594     -0.053238      0.016697
Li	      6.23509      4.36844     10.48376        -0.012620      0.036636      0.040675
Li	      8.12801      6.37036     10.52547        -0.061269      0.003741      0.046863
Li	      6.27771      6.29353      8.59752         0.028697     -0.058719     -0.010843
Sc	      2.04417      4.29072      6.18067         0.004003      0.017679     -0.100784
Ti	     10.31011      6.40435      8.48787        -0.230097      0.119514      0.021349
Mn	      8.29744      6.32569      6.32950         0.036364      0.026126      0.051521
Mn	      8.29262      8.49474      8.53145         0.018493     -0.060940     -0.015549
Cr	      2.06471      0.03883      2.13209         0.014451     -0.029729     -0.075756
Cr	      4.13684      2.18314      2.12756         0.004419      0.058563     -0.037047
Fe	      8.40332     10.60194     10.63448        -0.087176     -0.003716     -0.071054
Fe	      4.15131      6.40689      6.19929         0.134496     -0.109114      0.029663
Ni	      2.09354      2.12517      4.21672         0.007322      0.001857      0.001102
O	      2.04798      2.07027      2.09930         0.027192      0.029846     -0.085406
O	      4.23003      4.24946      2.11321         0.010007     -0.015976     -0.028736
O	      4.14950      2.09480      4.12932         0.110392      0.076881     -0.073203
O	      6.31821      4.31896      4.09945        -0.010469     -0.068148      0.018328
O	      6.09063      2.10651      6.52694        -0.000449      0.001905      0.081157
O	      8.26745      4.38604      6.25459        -0.025822      0.038658      0.153331
O	      2.08841      4.17992      4.23992        -0.010217      0.124912     -0.034984
O	      4.19333      6.31065      4.22823        -0.154022     -0.012954     -0.167520
O	      4.15027      4.21466      6.51844         0.022944     -0.024920      0.045433
O	      6.27270      6.39252      6.34255        -0.006046      0.003462      0.073003
O	      6.13272      4.06259      8.49241        -0.028034     -0.175293      0.043847
O	      8.40543      6.32881      8.50908         0.172797     -0.045571      0.032905
O	      2.18642      6.35807      6.38620        -0.082435      0.001180      0.007166
O	      4.15488      8.38642      6.43373        -0.007988      0.093689      0.023055
O	      4.11664      6.48116      8.37881        -0.029574      0.080663     -0.010991
O	      6.23072      8.63005      8.41450         0.012692      0.063121     -0.003736
O	      6.14396      6.37707     10.54381         0.183853      0.022080      0.009989
O	      8.27594      8.60137     10.41738         0.006678     -0.121202      0.014726
