# total energy = -139.28635553 eV
 
CRYSTAL
PRIMVEC
2.023483 -4.311210 2.023414 
-2.013927 -4.299355 -6.057582 
4.043841 0.000011 -4.043711 
PRIMCOORD
24 1
Li	      3.03014     -5.45051     -5.03013        -0.004695     -0.032871     -0.002437
Li	     -0.97232     -5.37999     -5.07605        -0.009413      0.001553      0.009276
Li	      3.01903     -5.32003     -0.99712         0.003953      0.032520     -0.000796
Li	      3.04279     -3.15041     -7.04126         0.001656      0.005910     -0.006365
Li	      1.04579     -7.53505     -5.07049        -0.008675      0.000069      0.007245
Li	      3.00691     -3.30852     -3.03309         0.005359     -0.001123     -0.005012
Mn	      3.05341     -1.07727     -5.06352         0.029748     -0.005531      0.033387
Mn	      1.02918     -5.38060     -3.04401        -0.034179      0.005487     -0.031944
Mn	      3.03854     -7.53426     -7.06339         0.001824      0.001032     -0.003656
Ni	      1.01375     -5.37874     -7.06179        -0.001836     -0.000240      0.002584
Ni	      1.01670     -3.21797     -1.00530         0.012035      0.003256      0.018844
Ni	      1.01429     -3.23984     -5.05109        -0.015373     -0.006361     -0.012333
O	      5.06058     -3.42043     -2.97513         0.002497     -0.005255      0.107682
O	      0.99386     -3.49178     -3.01149         0.000838     -0.058115     -0.025974
O	      1.03303     -3.38372     -7.15678         0.010658      0.159111     -0.111108
O	      3.11463     -5.59182     -7.06909         0.106210      0.012561     -0.002828
O	      0.93767     -1.16840     -1.01422        -0.133574      0.137511     -0.001551
O	      3.01426     -5.49087     -3.01812         0.001327      0.132098     -0.000947
O	      3.02082     -2.96577     -5.02838         0.024513      0.055748     -0.000531
O	      0.96404     -7.34838     -3.02833        -0.107875      0.001803      0.001442
O	      3.12238     -3.07409     -1.02422         0.112661     -0.161682     -0.003287
O	      1.00726     -5.27836     -0.98163         0.003068     -0.131800      0.001679
O	      1.02381     -5.28933     -4.97212         0.002495     -0.134481      0.136556
O	      3.03525     -0.86595     -3.10499        -0.003223     -0.011201     -0.109928
