# total energy = -228.73370414 eV
 
CRYSTAL
PRIMVEC
0.003991 6.311184 6.271281 
6.254094 0.026467 6.248747 
4.186397 4.209379 0.000666 
PRIMCOORD
36 1
Li	      4.20135     10.46378      6.28244         0.008722     -0.045011     -0.023858
Li	      8.35014      2.18119      6.25321         0.029265      0.004612     -0.030223
Li	      2.05601      6.33885      8.27057         0.001311     -0.021473     -0.042849
Li	      8.31200      4.28815      8.27387         0.026569     -0.006778     -0.044015
Li	      8.31738      6.24435      6.43789        -0.009522     -0.046115     -0.027406
Li	      0.09435      4.23345      4.18391         0.051669     -0.002944      0.003866
Li	      6.23252      8.45017      6.25385         0.001015      0.046311      0.005385
Li	      8.36167      8.31261      8.35072        -0.005921     -0.001662      0.016899
Li	      6.40452      6.32157      8.34972         0.044276      0.006907      0.025621
Sc	      4.06736      4.22565      4.15426        -0.052576     -0.024340      0.001628
Ti	      4.09761      6.37762      6.40829        -0.326607      0.111663      0.246052
Mn	      6.29610      8.39197     10.42522         0.027495     -0.021094     -0.020060
Mn	      6.31646      4.24072      6.29559         0.059144     -0.041829      0.069881
Cr	      4.15735      2.15297      2.04641        -0.033802      0.044217     -0.013843
Cr	      6.26245      2.13848      8.27798        -0.004613     -0.029420     -0.021601
Ni	      8.30595      6.33489     10.38024        -0.013523      0.007292      0.080959
Ni	      8.39283     10.48309     10.44896         0.031408     -0.025014     -0.111913
Ni	      2.07534      2.14720      4.16130         0.042079     -0.011243      0.016263
O	      2.11251      2.07509      2.16016        -0.023694      0.023075     -0.203796
O	      4.21428      4.21552      2.07672        -0.038561      0.010196     -0.008455
O	      4.23963      2.10398      4.09343         0.071827      0.073021     -0.009700
O	      6.27724      4.11624      4.28914        -0.113992     -0.025582      0.017202
O	      6.23469      2.27657      6.22044        -0.009275      0.032541     -0.046729
O	      8.19097      4.24167      6.19108        -0.100899     -0.019082      0.155559
O	      2.09127      4.19018      4.23810         0.019750      0.057814     -0.036937
O	      4.19666      6.32328      4.11865         0.012659      0.013501      0.058870
O	      4.30446      4.36553      6.24393         0.003466      0.023825      0.024417
O	      6.20056      6.17967      6.19809        -0.021458     -0.010257      0.154941
O	      6.28304      4.13807      8.17445        -0.010207      0.016827     -0.022516
O	      8.48022      6.32936      8.36807        -0.017549     -0.010715     -0.087109
O	      2.25480      6.27395      6.21075         0.344201      0.042677      0.142401
O	      4.21672      8.31254      6.33130         0.009660     -0.144684     -0.000309
O	      4.17695      6.42874      8.29394        -0.001030     -0.013517     -0.300636
O	      6.16468      8.45436      8.53461         0.036039     -0.027806      0.042290
O	      6.24493      6.50037     10.48586         0.001343      0.032514     -0.017076
O	      8.16695      8.43703     10.40970        -0.038670     -0.018429      0.006799
