# total energy = -237.76409396 eV
 
CRYSTAL
PRIMVEC
-0.030030 6.283710 6.357825 
6.241789 -0.026124 6.353817 
4.146214 4.171394 -0.002299 
PRIMCOORD
36 1
Li	      6.21998      0.01481      6.33882        -0.018741      0.017698     -0.012877
Li	      6.21007      4.10803      2.26476         0.020783     -0.016791      0.090315
Li	      4.16860      0.07931      4.22320         0.067577     -0.078331      0.005419
Li	      6.11596      8.31570     10.53074         0.048506     -0.068580     -0.010274
Li	      2.09913      4.20771      2.14536         0.004265      0.029163      0.017707
Li	      2.18711      2.05512      4.17358        -0.001936     -0.014854     -0.024668
Li	      4.16166      2.05697      6.27150        -0.002420     -0.007488     -0.075650
Li	      6.20404      8.35676      6.37096        -0.022582      0.011072     -0.015658
Li	      6.23136      6.29603      8.48718        -0.001586     -0.036355     -0.004702
Sc	      2.04626      2.06735      0.05532         0.041734     -0.009094     -0.059217
Ti	      6.29753      4.25625      6.19506         0.182042      0.066183     -0.197422
Mn	      4.19001      8.35366      8.53944        -0.018494     -0.056974     -0.137026
Mn	      6.29017      4.26361     10.57662        -0.077182     -0.028702      0.038075
Mn	      8.18164      8.33566      8.47476        -0.017262      0.002496      0.045279
Cr	      4.11324      6.23447      2.14458         0.013684     -0.000584      0.090076
Cr	      4.13839      6.21823      6.34682        -0.038151      0.114812     -0.081866
Co	      8.28046      6.27204     10.60455        -0.042159      0.081735      0.029426
Cu	      4.12016      4.09293      4.19754        -0.052016     -0.032275      0.059610
O	      2.04960      2.06860      2.11222         0.008398      0.010709      0.065345
O	      4.13147      4.23808      2.22578         0.016439      0.083731     -0.158471
O	      4.16726      2.05580      4.05430        -0.004746     -0.165936      0.099027
O	      6.27779      4.13263      4.36435         0.029141     -0.010355      0.213628
O	      6.21715      2.14073      6.48453        -0.057220      0.011711      0.033217
O	      8.19176      4.14857      6.36657        -0.150607      0.020723      0.000121
O	      1.94791      4.36281      4.21677         0.205908      0.073622     -0.013003
O	      4.04501      6.40800      4.24101         0.005655      0.094459     -0.011574
O	      4.19216      4.20881      6.21758        -0.030062     -0.038319      0.153926
O	      6.15417      6.14321      6.33035         0.043341     -0.148929     -0.058894
O	      6.06235      4.07262      8.38168        -0.013531      0.017907     -0.067629
O	      8.33530      6.35186      8.63480        -0.028676      0.006018      0.022850
O	      2.13061      6.27471      6.19227        -0.014018     -0.013196     -0.036014
O	      4.13311      8.25899      6.53684         0.020781     -0.014658      0.051809
O	      4.10418      6.13337      8.33901        -0.018028     -0.056695     -0.005873
O	      6.22829      8.32544      8.48494         0.000309     -0.010793     -0.018515
O	      6.34599      6.16963     10.63845         0.040217      0.187594      0.004176
O	      8.43053      8.27370     10.64924        -0.139364     -0.020725     -0.030675
