# total energy = -236.69855431 eV
 
CRYSTAL
PRIMVEC
0.021256 6.450326 6.327355 
6.238116 0.036051 6.312921 
4.163573 4.295588 0.019199 
PRIMCOORD
36 1
Li	      8.34234      4.35339      4.34464         0.011410      0.023122     -0.121705
Li	      6.19864      2.13283      4.38164        -0.053279      0.016711     -0.041881
Li	      6.20316      2.19408      8.29532        -0.025095      0.030996     -0.094036
Li	      8.29359      4.35970      8.26487        -0.033405     -0.029967      0.055401
Li	      4.16332      4.27912      4.30062        -0.028571     -0.068741      0.089831
Li	      8.45429      6.28014      6.34454        -0.004349      0.071465     -0.014385
Li	      6.32130      4.32565      6.25611        -0.093444     -0.049994     -0.017244
Li	      6.27015      4.39920     10.47610         0.063775      0.017386     -0.003762
Li	      6.30024      6.40633      8.44948         0.016298     -0.001355      0.014893
Sc	      6.16958      4.33705      2.23643         0.077306      0.005240      0.053816
Ti	      4.36261      4.28709      8.53443         0.334296     -0.030204      0.111139
Mn	      4.12663      2.18807      2.15579         0.071548     -0.154251      0.048876
Mn	      2.09058      6.42551      4.21397         0.158403      0.013171     -0.053397
Mn	      6.29524      8.52011      6.35379        -0.069198     -0.028872      0.080171
Cr	      6.20610      6.46787      4.22741         0.034881     -0.007197      0.009162
Cr	      4.18610      6.43725      6.32826        -0.024593      0.095449      0.113129
Co	      6.23061      0.08885      6.28213        -0.173930      0.303016     -0.238798
Ni	      8.24145      2.31589      6.24473        -0.073996     -0.058276     -0.017082
O	      2.06877      2.13117      2.13525         0.101349     -0.003617      0.113462
O	      4.14738      4.25362      1.94573        -0.074858     -0.154384      0.133728
O	      4.05339      2.19224      4.02990         0.055490     -0.058298      0.032852
O	      6.18419      4.44569      4.19999         0.013289      0.039036     -0.028635
O	      6.26666      1.98985      6.30374         0.037691      1.250944      0.053442
O	      8.49985      4.29283      6.28704        -0.127021      0.000645      0.016352
O	      2.08437      4.20262      4.41988         0.013649      0.031559     -0.070317
O	      4.10151      6.45229      4.34465         0.019596      0.018510     -0.057446
O	      4.08775      4.43716      6.45315        -0.102125     -0.082458      0.036861
O	      6.15230      6.42904      6.23231         0.129908     -0.078812      0.018799
O	      6.16302      4.34013      8.39505        -0.284629      0.028017      0.075245
O	      8.31304      6.63320      8.56791         0.019509      0.099702      0.004776
O	      2.09933      6.54455      6.25260         0.139334     -0.062140      0.018105
O	      4.20949      8.56325      6.48719         0.150212     -0.729896      0.092266
O	      4.16730      6.40427      8.34582        -0.043915     -0.117355      0.011438
O	      6.27674      8.65250      8.31656        -0.092835      0.007191      0.026782
O	      6.42843      6.46090     10.68321        -0.177475     -0.270267     -0.219310
O	      8.34776      8.72083     10.43367         0.034774     -0.066076     -0.232529
