# total energy = -234.20189189 eV
 
CRYSTAL
PRIMVEC
-0.019022 6.251704 6.262865 
6.328684 -0.002719 6.246234 
4.239486 4.177007 -0.022063 
PRIMCOORD
36 1
Li	     10.53130     10.40248     12.47735         0.013016      0.011757      0.005020
Li	      2.18003      6.17988      8.35129        -0.030003     -0.011448      0.000592
Li	     10.43777      6.29122      8.31510         0.020624      0.009784     -0.079879
Li	      8.39748      6.34351      6.34424        -0.067219      0.072195      0.017865
Li	      6.32348      4.12895      6.37651        -0.008633     -0.034309     -0.028073
Li	      8.51157      6.24486     10.26644         0.042118      0.012686     -0.041001
Li	      4.25129      6.24359      6.32727         0.018874      0.000277      0.018047
Li	      4.24593      4.18244      8.25158        -0.003065      0.051778     -0.018230
Li	      6.33559      6.22881      8.29317         0.008178     -0.007241     -0.001716
Sc	      6.28189      6.25722      4.19250         0.025096      0.055430      0.070928
Ti	      2.07386      8.19272      6.27927        -0.170253     -0.230202      0.036469
Mn	      6.32257      8.27195     10.40316        -0.054359     -0.010576      0.066540
Mn	      8.44395      4.25646      8.24590        -0.070455      0.067459      0.037366
Mn	      6.31531      8.41490      6.31038        -0.019882      0.052774     -0.031429
Cr	      4.22923      0.00602      4.16822        -0.055063      0.064826      0.047113
Cr	      4.23718      4.19711      4.17238         0.021231     -0.037238      0.079972
Cu	      4.24249      8.29553      8.28971         0.017352      0.003264     -0.045138
Cu	      6.29945      4.20748     10.32982        -0.081481     -0.055622     -0.014739
O	      4.16316      6.33755      8.49378         0.005623     -0.089887      0.031041
O	      2.16569      2.16726      1.97515        -0.034950      0.015628     -0.098123
O	      4.10795      4.07125      2.14152        -0.019844      0.050794     -0.027984
O	      4.27774      2.08058      4.33613        -0.044413     -0.047119      0.084490
O	      6.31856      4.20688      4.21460         0.044628      0.095542      0.005897
O	      6.52231      2.03886      6.11912         0.258595     -0.048805      0.119419
O	      8.44977      4.02300      6.29207         0.036809     -0.072454     -0.010440
O	      2.26072      4.18580      3.99919         0.079308      0.014803     -0.093395
O	      4.28192      6.18650      4.08541        -0.012418     -0.090793     -0.023036
O	      4.03953      4.22908      6.18829        -0.002585      0.029424     -0.006887
O	      6.30028      6.49830      6.20724        -0.011454      0.017611     -0.006632
O	      6.52105      4.16325      8.35898         0.096377     -0.011191     -0.100659
O	      8.48269      6.09012      8.26758         0.000938     -0.049404     -0.036987
O	      2.10089      6.28521      6.27932        -0.002859      0.176692      0.025142
O	      4.22991      8.35109      6.05821        -0.034826      0.011351      0.011142
O	      6.25821      8.36493      8.45853         0.036311     -0.008266     -0.020700
O	      6.16274      6.22016     10.42396        -0.008708      0.027702      0.004301
O	      8.32026      8.40936     10.48044         0.007392     -0.037223      0.023705
