# total energy = -248.70035665 eV
 
CRYSTAL
PRIMVEC
0.002357 6.229362 6.417945 
6.351325 -0.005386 6.425678 
4.239779 4.163989 -0.009205 
PRIMCOORD
36 1
Li	      8.37559      2.05288      6.41162        -0.065786     -0.022114     -0.032242
Li	      4.26623      8.27877      8.57358         0.031159     -0.016589      0.003738
Li	      6.34104      2.05900      4.31404        -0.010050     -0.015479     -0.019549
Li	     10.56439      6.22583      8.54290        -0.010370     -0.024569      0.001583
Li	      6.36444      6.19195      4.35229        -0.010730      0.001807      0.062487
Li	      6.36380      4.14655      6.38921        -0.058836      0.012772     -0.022999
Li	      2.15543      6.23856      4.29847         0.014418      0.024109      0.018631
Li	      4.27837      6.23605      6.36848         0.056153      0.007409     -0.020848
Li	      6.35556      6.26964      8.52538        -0.018224      0.022890     -0.020484
Sc	      4.22174      8.20259      4.30670         0.009657     -0.006345      0.076195
Ti	      2.05011      4.05910      2.12847        -0.034150     -0.217400      0.177055
Mn	      4.29390      4.19162      4.28553         0.003566     -0.021936      0.020511
V	      6.36994      0.06518      6.42804         0.093743     -0.132646     -0.027476
V	      2.12134      0.06778      2.12187         0.031629      0.012514      0.058705
V	      8.50821      8.26458      8.56449        -0.080388      0.057265     -0.062519
Cr	      8.43950      4.19022      4.27119        -0.037762      0.023841     -0.056863
Cr	      4.23199      2.07858      6.42063        -0.107138      0.191838     -0.058397
Fe	      6.33733      8.26567      6.53821         0.051530      0.058476     -0.135141
O	      2.13592      2.20149      2.05428        -0.021565      0.262494     -0.004760
O	      4.22337      4.15135      2.05076        -0.038055      0.021047     -0.058212
O	      4.23246      2.02772      4.40235        -0.008478     -0.090338      0.006298
O	      6.41974      4.18584      4.13272         0.111587     -0.024113      0.033736
O	      6.24959      2.00312      6.43007         0.011016      0.094473      0.012949
O	      8.46816      4.21153      6.42792        -0.041561     -0.037102      0.020778
O	      2.10406      4.19224      4.06459        -0.063669     -0.040944     -0.157136
O	      4.21498      6.24226      4.31607         0.012552      0.067476     -0.051721
O	      4.19895      4.11157      6.52000         0.024673     -0.062443      0.036567
O	      6.43450      6.34879      6.41071         0.093036     -0.142122      0.016529
O	      6.45381      4.15669      8.58043         0.085145     -0.016829     -0.032190
O	      8.47152      6.21133      8.46253         0.043630     -0.081766     -0.042215
O	      2.10890      6.18148      6.51131         0.008049      0.039352      0.008246
O	      4.36972      8.38493      6.37932        -0.114433     -0.000257     -0.006640
O	      4.16442      6.16011      8.66188        -0.011994      0.036345      0.057023
O	      6.43213      8.36793      8.49453         0.041391     -0.023921      0.156042
O	      6.22642      6.19323     10.84817         0.003620      0.014817     -0.070689
O	      8.48968      8.35448     10.58109         0.006636      0.027990      0.113008
