# total energy = -250.61548999 eV
 
CRYSTAL
PRIMVEC
0.027444 6.528387 6.326034 
6.359779 0.028060 6.325487 
4.240657 4.353144 0.017613 
PRIMCOORD
36 1
Li	      8.38073      2.29330      6.28568        -0.021883      0.064440      0.042784
Li	     10.40330      6.66759      8.46769         0.022274     -0.016780      0.014176
Li	      8.38924      4.54044      8.42331        -0.013971     -0.023376      0.016899
Li	      4.19083      4.52068      4.32462        -0.048456     -0.017799      0.017560
Li	      8.51528      6.61366      6.50775         0.057229     -0.004272     -0.034227
Li	      6.26784      4.34384      6.44497        -0.049200     -0.025649      0.004234
Li	      2.25770      6.43298      4.12002         0.015199     -0.106000      0.002128
Li	      4.31318      6.35985      6.21160        -0.008502     -0.037029     -0.008470
Li	      4.41429      4.16708      8.31968        -0.031004     -0.015610     -0.005621
Sc	      2.18336      6.53880      8.37440         0.005079      0.016614      0.169687
Ti	      4.16305      2.25685      2.07538        -0.182098      0.159111     -0.072646
Mn	     10.54638      8.60734     10.49369         0.125771     -0.049183      0.053511
V	     10.55968      4.43049      6.35542        -0.119416      0.104241     -0.075718
V	      6.40198      2.22039      4.30255        -0.028970      0.047426     -0.001427
V	      2.27970      4.34616      6.27990         0.038367     -0.111513      0.815510
Cr	      8.48894      4.37224      4.26674        -0.063703      0.075792      0.080740
Cr	      6.34396      6.51470      4.32221        -0.036841      0.372664     -0.241999
Cr	      6.46495      6.46615      8.37351        -0.010761     -0.014710      0.247840
O	      2.25530      2.10414      2.21610         0.283641     -0.078175     -0.059614
O	      4.29451      4.18618      2.12439         0.045203     -0.143015     -0.012874
O	      4.27772      2.09694      4.11555         0.018225     -0.075696     -0.030148
O	      6.46210      4.40216      4.23029         0.037137     -0.052391     -0.017266
O	      6.36744      2.06091      6.24938        -0.022820      0.040873     -0.056597
O	      8.63440      4.32488      6.23300        -0.050150      0.005881     -0.026429
O	      2.13345      4.17275      4.34145         0.069378     -0.209656     -0.921505
O	      4.39206      6.50484      4.20053        -0.086216     -0.183473      0.085867
O	      4.15686      4.38787      6.36651         0.097067      0.014745     -0.156116
O	      6.38699      6.61683      6.34174        -0.079615      0.578434      0.149822
O	      6.37270      4.51973      8.40895        -0.068105      0.090223     -0.119166
O	      8.39303      6.53210      8.48990        -0.034055      0.071845     -0.081580
O	      2.06101      6.49633      6.34706         0.048295     -0.543879     -0.134088
O	      4.33872      8.81754      6.47324        -0.055167      0.022508     -0.030270
O	      4.29041      6.73321      8.48437         0.085397      0.022972     -0.059503
O	      6.27172      8.71895      8.46650         0.046640     -0.031215      0.538977
O	      6.29622      6.62614     10.49405         0.030460      0.054828     -0.064526
O	      8.37848      8.90766     10.53762        -0.014427     -0.003179     -0.029942
