# total energy = -239.55439354 eV
 
CRYSTAL
PRIMVEC
0.009328 6.447058 6.286645 
6.312693 0.010109 6.285920 
4.216248 4.305625 -0.001074 
PRIMCOORD
36 1
Li	      8.38990      2.23116      6.34637         0.033664      0.052504     -0.028401
Li	      4.21349      8.46039      8.33151        -0.050045      0.048748     -0.000723
Li	      4.16897      6.49658     10.35039         0.031197      0.020298      0.090899
Li	      6.32417      2.16637      8.19542         0.018287     -0.041629      0.026814
Li	      4.29644      2.15246      6.34833         0.015112     -0.017271      0.030181
Li	      6.34071      4.17094      6.38801         0.021873     -0.095544     -0.026546
Li	      4.18311      6.46056      6.47003        -0.040465      0.042850     -0.103914
Li	      4.25333      4.54363      8.26346        -0.013350     -0.031209      0.038832
Li	      6.14802      6.40205      8.33383         0.030591      0.016966      0.005734
Sc	      4.27965      4.29441      4.23014        -0.034099      0.023417     -0.092771
Ti	      8.42154      6.55204     10.41563        -0.047057      0.046376     -0.127992
Mn	      6.43128      6.34578      4.22705        -0.029086     -0.014538     -0.026421
V	      6.30127      8.57659     10.47813         0.029360     -0.154987      0.108692
V	      8.40826      4.25739      8.25096         0.135693      0.132794     -0.007828
V	      6.29696      4.31596     10.46019         0.033866      0.081369      0.033178
V	      6.35017      8.51877      6.46190        -0.104103      0.195934     -0.008843
Co	     10.49306      4.33969      6.30068         0.030766     -0.019165     -0.199105
Cu	      2.15268      6.45539      8.35264        -0.142921      0.014063      0.002182
O	      4.05314      6.49224      8.39739         0.044229      0.013771     -0.019587
O	      2.13180      2.42178      2.13744         0.044011     -0.039733     -0.017010
O	      4.24011      4.37064      2.13481         0.090997      0.019802     -0.071589
O	      4.31538      2.22466      4.21113        -0.040194     -0.044223     -0.004395
O	      6.31021      4.24113      4.26078         0.060478      0.101469      0.042085
O	      6.36779      2.07809      6.13788        -0.089129     -0.295409      0.121188
O	      8.42654      4.34564      6.40291         0.241225      0.052903     -0.037447
O	      2.10669      4.37338      4.22272         0.004913      0.022407     -0.015759
O	      4.11489      6.53988      4.22455        -0.064449     -0.004401     -0.011107
O	      4.08007      4.32892      6.29996         0.086988      0.019264      0.084103
O	      6.27289      6.72950      6.29554         0.007322     -0.218696      0.042944
O	      6.44540      4.31023      8.45456        -0.166809      0.041452     -0.086896
O	      8.47718      6.20474      8.53542        -0.004415      0.030818      0.111858
O	      2.07384      6.24863      6.11928        -0.187121      0.029344      0.102178
O	      4.30439      8.68023      6.17366        -0.066752      0.306556      0.210477
O	      6.31816      8.57510      8.38342        -0.011376     -0.116544     -0.101761
O	      6.41433      6.39736     10.39942         0.094408     -0.041678     -0.005019
O	      8.40608      8.44693     10.43731         0.036391     -0.178078     -0.058231
