# total energy = -240.06008505 eV
 
CRYSTAL
PRIMVEC
0.015992 6.385840 6.289296 
6.224422 0.012887 6.292364 
4.176185 4.285449 -0.017807 
PRIMCOORD
36 1
Li	      8.27982      8.53614     12.49519        -0.083468     -0.010089      0.017751
Li	      6.28635      4.21221      2.21504         0.023409     -0.077459     -0.024930
Li	      6.26005      2.30043      4.22655        -0.007795      0.006377      0.085136
Li	      6.30039      6.27216      4.37545        -0.073105      0.012887     -0.084241
Li	      6.26685      4.44833      6.12505         0.010829     -0.044373      0.036560
Li	      8.28335      6.46119     10.50071         0.039345      0.013331     -0.015874
Li	      6.31311      8.35779      6.30338        -0.009492     -0.002677      0.000229
Li	      4.27691      6.36805      6.32309         0.037228     -0.003247     -0.070679
Li	      6.22955      6.44013      8.21535        -0.018266      0.024184      0.045594
Sc	      4.23155      8.41110      8.45204        -0.054201     -0.085982     -0.011629
Ti	      4.18982      8.51017      4.23565         0.048160     -0.479666      0.345075
Mn	      4.22820      4.29174      4.31188        -0.063968      0.147678      0.071357
V	      0.17401      6.38582      6.23186         0.050145      0.219226     -0.096655
V	      0.05519      2.13246      2.09049        -0.189689      0.054425     -0.244328
V	      8.26029      4.32964      8.32815        -0.072415     -0.015581      0.064348
V	      8.21968      8.58420      8.33384        -0.016128     -0.053382     -0.033284
Co	      8.31272      6.41526      6.25190         0.093705      0.009160      0.096704
Ni	      8.24414      4.29059      4.18221         0.064979      0.019655      0.042432
O	      2.03218      2.32632      1.99459         0.206800     -0.068671      0.085006
O	      4.12357      4.28348      1.99428         0.078960      0.498834      0.008876
O	      4.15350      2.10637      4.24878         0.031522      0.051871     -0.064760
O	      6.26339      4.28780      4.18127        -0.149577      0.027786     -0.049636
O	      6.15350      2.00089      6.36375        -0.090196     -0.089011     -0.619025
O	      8.42618      4.41306      6.30452        -0.045589      0.002653      0.075638
O	      1.96716      4.35890      4.04511        -0.085532      0.011061     -0.049723
O	      4.15015      6.53651      4.11700         0.081427      0.394764      0.688654
O	      4.16564      4.11631      6.40454         0.002752     -0.007814     -0.011047
O	      6.41817      6.40744      6.28647         0.000065     -0.012725      0.037350
O	      6.16887      4.23053      8.49480         0.068091     -0.379576     -0.127019
O	      8.40438      6.40124      8.26684        -0.018218     -0.068041     -0.022183
O	      1.91369      6.44279      6.26641         0.032001     -0.019632      0.038610
O	      4.16967      8.61899      6.20861         0.027007     -0.008824     -0.062562
O	      4.13905      6.39736      8.34936         0.023254      0.013243     -0.044890
O	      6.26733      8.51935      8.40009        -0.077310      0.014568     -0.028376
O	      6.17563      6.25523     10.59432         0.115609     -0.034220     -0.054017
O	      8.43520      8.57880     10.38625         0.019660     -0.060731     -0.024462
