# total energy = -236.77339393 eV
 
CRYSTAL
PRIMVEC
0.042929 6.335677 6.470157 
6.316427 0.038093 6.476143 
4.226126 4.242476 0.010264 
PRIMCOORD
36 1
Li	      8.38441      4.30804      4.35846         0.025246      0.003025     -0.006221
Li	      2.08823      4.27154      2.27902        -0.003043      0.021623      0.018630
Li	      6.39991      6.41009      4.55827        -0.010351     -0.061520     -0.039323
Li	      4.11431      4.22489      4.42858         0.040036     -0.027432      0.063267
Li	      8.20369      6.32416      6.46317         0.044203     -0.042405     -0.017692
Li	      6.41298      4.49358      6.40390         0.001510     -0.063451     -0.050414
Li	      6.35424      8.22333      6.32608        -0.013314      0.013553      0.000297
Li	      4.47996      6.37146      6.41982        -0.043321     -0.004662     -0.015880
Li	      6.38695      6.32867      8.33923         0.004367     -0.012968     -0.013754
Sc	      6.29324      2.18207      4.36972        -0.072311     -0.021676     -0.029733
Ti	      4.27355      6.43266      2.29139        -0.058575      0.349825      0.316552
Mn	      8.49383      8.53340     12.92783         0.067355      0.019478      0.065468
V	     10.49623      4.27625      6.49970         0.044284     -0.107523     -0.026343
V	      6.33704      4.25848      2.23648         0.058789     -0.023046      0.044269
V	      4.20781      2.06564      2.22461        -0.015207     -0.040514      0.002484
V	      4.25928      4.22916      8.42856         0.041950      0.035395     -0.237769
Cu	      0.10925      4.27754      4.28885        -0.087727     -0.075263     -0.022750
Ni	      2.16642      6.28931      4.33326         0.035087      0.113170      0.021543
O	      6.35269      6.35249      6.47637         0.000710      0.043139     -0.070258
O	      2.03756      2.11073      2.20895        -0.104882      0.005219     -0.002753
O	      4.27931      4.24761      2.08587        -0.028198      0.057636      0.121465
O	      4.26681      2.12754      4.17571         0.026048      0.030265      0.037890
O	      6.30498      4.20009      4.20026         0.009245     -0.034419     -0.003953
O	      6.43805      2.12953      6.50608         0.049178      0.014194      0.025874
O	      8.54490      4.13901      6.46298        -0.085089     -0.048067     -0.018750
O	      2.04354      4.31606      4.32214         0.005998     -0.113259     -0.003094
O	      4.21511      6.37089      4.16900         0.081325      0.044005     -0.325172
O	      4.18763      4.27128      6.68959        -0.055030     -0.006760      0.126709
O	      6.25085      4.12493      8.52322         0.015018     -0.230023     -0.079962
O	      8.61022      6.47770      8.62614         0.124529     -0.028924     -0.014906
O	      2.06063      6.51293      6.58811         0.014397      0.059181      0.007147
O	      4.12591      8.48359      6.69428        -0.013505     -0.042957      0.135934
O	      4.14786      6.34405      8.63959        -0.008670     -0.016815      0.006669
O	      6.42363      8.50044      8.70833        -0.008613     -0.008073      0.029673
O	      6.41745      6.33978     10.95750        -0.067003      0.113736     -0.063035
O	      8.53331      8.44026     10.61634        -0.014433      0.086315      0.017891
