# total energy = -237.86950789 eV
 
CRYSTAL
PRIMVEC
-0.036439 6.441693 6.257158 
6.398274 -0.030040 6.251281 
4.256884 4.282239 -0.011821 
PRIMCOORD
36 1
Li	      2.13214      6.47626      8.32160         0.063766     -0.012581     -0.048821
Li	      8.49817     10.65055     10.43979        -0.072428      0.003719     -0.008773
Li	     10.45799      6.49566      8.33676        -0.044917      0.131914      0.097658
Li	      2.12021      4.34153      2.13520        -0.097594      0.004140      0.072355
Li	      2.08560      2.14764      4.06947         0.002963     -0.002664     -0.071428
Li	      8.61259      6.35419      6.41722        -0.001721      0.117427      0.059082
Li	      4.20267      8.49796      4.13480        -0.014878     -0.063681     -0.069205
Li	      8.51755      6.47803     10.36464         0.030964      0.004909      0.066388
Li	      8.58351      8.38662      8.43532         0.015117     -0.018807      0.043639
Sc	      6.49746      6.37796      8.45119        -0.007360     -0.105676     -0.035189
Ti	      4.18210      6.39891      6.18522        -0.278039      0.023323     -0.180650
Mn	      6.41989      2.12940      4.18952         0.079955      0.133058     -0.021927
V	      4.19603      2.19805      2.02237        -0.222435     -0.342103     -0.050140
V	      6.50647      4.26116      6.32281         0.148408     -0.083494     -0.040254
V	      2.15113      4.22888      6.18576         0.003658     -0.031978     -0.057381
V	      4.23888      4.28119      4.11174         0.025507      0.069077     -0.098586
Cu	      6.32122      0.10099      6.26445         0.034570     -0.029755      0.004700
Cu	      8.45644      2.10755      6.25373        -0.026609      0.014877     -0.002958
O	      2.30791      2.11495      1.93953         0.143397      0.061066      0.170619
O	      4.29019      4.07701      2.01059        -0.020553      0.166765     -0.277998
O	      4.37310      2.21468      3.99535         0.133309      0.001503     -0.113609
O	      6.27886      4.15591      4.26435         0.023128     -0.059994      0.038520
O	      6.34648      2.33710      6.36017        -0.255336     -0.059822      0.016778
O	      8.25815      4.41996      6.20568         0.004647      0.304020      0.096404
O	      2.26133      4.17394      4.22867         0.135997      0.011151      0.084428
O	      4.28219      6.30689      4.23703         0.025265     -0.016702      0.170134
O	      4.31417      4.37730      6.23341         0.026641      0.162442     -0.123096
O	      6.27793      6.39816      6.26592        -0.108449     -0.023960      0.088933
O	      6.30697      4.32450      8.27327         0.088647      0.053306      0.034512
O	      8.45736      6.40490      8.37834        -0.107282      0.005437      0.077995
O	      2.29243      6.23173      6.23829         0.234987     -0.147712     -0.022564
O	      4.30101      8.36878      6.19717         0.239308     -0.142034      0.007812
O	      4.26722      6.64658      8.21622         0.037139     -0.045404     -0.059928
O	      6.27456      8.53079      8.20103        -0.090363     -0.091592      0.017294
O	      6.30983      6.58115     10.48769        -0.042623     -0.026169      0.291734
O	      8.32036      8.58261     10.55305        -0.106785      0.035992     -0.156479
