# total energy = -238.77962500 eV
 
CRYSTAL
PRIMVEC
0.034361 6.335112 6.365278 
6.243997 0.019100 6.379953 
4.170383 4.240807 0.005141 
PRIMCOORD
36 1
Li	      4.32018      8.45484      8.51055         0.077888      0.004978     -0.004723
Li	      4.22171      6.33800     10.52663        -0.018797      0.007856     -0.030353
Li	      6.29471      8.40684     10.52207         0.013775     -0.017779      0.057234
Li	      2.13651      4.27297      2.19190        -0.043885     -0.014235     -0.005689
Li	      4.11326      4.22031      4.27400        -0.011135      0.011751      0.013409
Li	      8.27808      6.42316      6.43591        -0.040048      0.013280     -0.007199
Li	      8.31653      6.37036     10.58106         0.024905      0.019538      0.036580
Li	      2.19089      4.18777      6.39238        -0.011681     -0.008263     -0.026453
Li	      6.30924      6.49122      8.55419        -0.011056     -0.019294     -0.002813
Sc	      6.26390      4.21588      6.29054        -0.042786      0.076702     -0.070528
Ti	     10.39428     10.56331     12.72343        -0.139575      0.025020     -0.016713
Mn	      8.28229      8.44200      8.54503        -0.054344      0.057352     -0.012176
V	      4.10895      6.28497      2.15152         0.057821      0.031377      0.120131
V	      6.27286      4.30724     10.63335         0.020344     -0.106854     -0.092175
V	      4.14545      6.35060      6.39659         0.099363     -0.073915     -0.089867
V	      2.26075      2.16085      4.19338        -0.119276     -0.065691      0.033253
Ni	      2.11787      8.44700      6.36949        -0.032244      0.020767      0.057086
Ni	      6.28314     10.52461      8.54839         0.017289      0.003217      0.040554
O	      1.97979      2.07741      2.19735         0.000031      0.065045     -0.000779
O	      4.18050      4.28750      2.00025        -0.113576      0.020583     -0.093820
O	      4.01152      2.15455      4.20780         0.121083     -0.030630     -0.011834
O	      6.25241      4.37417      4.24595         0.017614      0.007023      0.105241
O	      6.25063      2.04398      6.40711        -0.094613     -0.087476     -0.027584
O	      8.42485      4.22510      6.42318         0.168251      0.097772     -0.002493
O	      2.03911      4.12053      4.21153        -0.001592      0.031244      0.011107
O	      4.26352      6.45206      4.28762        -0.015640      0.025423     -0.012741
O	      4.21998      4.30075      6.33582        -0.001652     -0.046262      0.030532
O	      6.18753      6.31546      6.23960         0.033728     -0.024094     -0.027575
O	      6.13610      4.13652      8.51231         0.021634      0.003723     -0.015121
O	      8.38098      6.42851      8.51075        -0.055090      0.017035      0.020974
O	      2.08733      6.37641      6.41108        -0.090164     -0.088558     -0.104672
O	      4.19222      8.53372      6.37697         0.093400      0.130625      0.023530
O	      4.19250      6.25660      8.36356         0.120827     -0.033735      0.101806
O	      6.38068      8.47888      8.54831         0.058789     -0.106859     -0.042979
O	      6.30411      6.31253     10.77914        -0.018410      0.045490      0.152198
O	      8.47126      8.49945     10.70637        -0.031179      0.007845     -0.105346
