# total energy = -243.78308626 eV
 
CRYSTAL
PRIMVEC
0.007227 6.403909 6.357907 
6.282339 0.000478 6.364168 
4.187449 4.273193 0.000854 
PRIMCOORD
36 1
Li	      2.14095      8.51245      6.29690        -0.008007      0.006736      0.031017
Li	      2.26003      6.37271      8.51984         0.021290     -0.059859     -0.027432
Li	      4.20463      8.33605      8.55842         0.020664      0.018521      0.055078
Li	      8.28083     10.62040     10.52066         0.030430     -0.012828      0.041217
Li	      8.34065      4.31123      8.48055         0.014305      0.081140     -0.017441
Li	      6.32747      6.31957      4.22519         0.006722     -0.012821      0.014639
Li	      6.28350      4.26114      6.25300         0.014984      0.038247     -0.012113
Li	      4.13484      6.44385      6.53652         0.015094     -0.019054     -0.005411
Li	      4.18702      4.37205      8.52842         0.006046     -0.049688     -0.011675
Sc	      4.15889      4.21942      0.09471         0.039376      0.084483      0.050172
Ti	      8.29899      6.35992      6.31109        -0.212099     -0.214660      0.022187
Mn	      8.39058      6.46974     10.59530        -0.015784     -0.103536     -0.038163
Mn	      6.20696      6.39921      8.48253         0.101780     -0.084352     -0.036962
V	      0.22613      2.22115      2.09054        -0.136722     -0.101926      0.056538
V	      4.25972      4.26561      4.21847        -0.163361      0.118270     -0.217658
V	      6.29957      8.55912      6.40573         0.160783     -0.173295      0.270531
Cr	      4.15692      8.52884      4.26221        -0.002684      0.077701     -0.075086
Ni	      6.34454      8.62987     10.51688         0.010359     -0.265712      0.051534
O	      1.95743      2.18334      2.04250         0.245583      0.021428      0.003748
O	      4.10818      4.49383      2.18279        -0.012769      0.022499     -0.013140
O	      4.25022      2.19658      4.33864        -0.124205     -0.114005      0.135093
O	      6.18366      4.22646      4.18857         0.216754      0.275001      0.009758
O	      6.18942      2.11356      6.45474        -0.048218      0.060971     -0.020019
O	      8.37648      4.45524      6.36010        -0.046548      0.267563     -0.047416
O	      2.08879      4.26623      4.36466        -0.108372     -0.039084     -0.149691
O	      4.22269      6.46891      4.05602         0.068963      0.038029      0.017946
O	      4.19494      4.15666      6.22782        -0.310669      0.007738      0.196091
O	      6.36069      6.46642      6.35867         0.269084     -0.056763     -0.042805
O	      6.28596      4.19777      8.61052         0.007079     -0.005714      0.006458
O	      8.28979      6.43532      8.34268        -0.107541     -0.001391     -0.131185
O	      2.08190      6.27674      6.43232        -0.049420      0.229161      0.020943
O	      4.19807      8.57046      6.29094         0.144574     -0.163936      0.011547
O	      4.35357      6.38383      8.47688        -0.064258     -0.006974      0.006047
O	      6.26584      8.45435      8.44808        -0.029906      0.054531     -0.164896
O	      6.27122      6.31308     10.63359        -0.053228      0.009158      0.024792
O	      8.41845      8.55249     10.65917         0.099921      0.074420     -0.014245
