# total energy = -250.24089870 eV
 
CRYSTAL
PRIMVEC
-0.016665 6.400203 6.351846 
6.383135 -0.029317 6.364421 
4.244748 4.264430 -0.008889 
PRIMCOORD
36 1
Li	      2.07677      2.14808      0.18915         0.005772      0.013863      0.023088
Li	      4.18885      2.21472      2.07975        -0.022670      0.043144     -0.004916
Li	      6.42325      2.12008      8.39016        -0.020011     -0.006324     -0.037113
Li	      2.10350      4.17609      2.07303         0.038522     -0.093143     -0.003359
Li	      4.24382      4.22246      4.13874        -0.018227      0.016579     -0.094380
Li	      8.41243      6.36160      6.46666         0.008495     -0.016773     -0.003861
Li	      6.41894      4.30718      6.46430         0.030447      0.033215      0.015425
Li	      6.33169      8.42956      6.38652        -0.005245      0.014516      0.032476
Li	      6.45144      6.32747      8.25323         0.045520     -0.009955      0.038287
Sc	      2.15391      6.33091      4.19679         0.057190     -0.026505     -0.003901
Ti	      8.46132      4.33256      4.30825        -0.053005      0.176295      0.156682
Mn	      4.32040      6.49173      6.42164        -0.012531      0.024053      0.019377
Mn	      2.14040      2.20907      4.26204         0.013844      0.022563      0.014395
V	      4.22693      4.26910      0.03854        -0.010276     -0.070638      0.040148
V	      6.31390      4.29319      2.12284        -0.035862      0.039207     -0.036061
V	      4.26149      4.19809      8.30333         0.003066     -0.017878      0.074701
Cr	      6.39495      2.10405      4.27947        -0.017427      0.002184     -0.022742
Cr	      6.35575      4.24795     10.55061         0.014703     -0.010272     -0.015285
O	      2.17849      1.98968      2.17636        -0.004416      0.014766     -0.078619
O	      4.35866      4.21619      2.08762        -0.023618      0.010736      0.057227
O	      4.37339      1.96132      4.22570         0.105961     -0.240159     -0.014920
O	      6.49506      4.13506      4.25566         0.117280     -0.118590      0.067220
O	      6.38734      1.95313      6.25084        -0.043019      0.049717     -0.049440
O	      8.55451      4.18678      6.20501        -0.031287      0.017168     -0.180314
O	      1.99295      4.33709      4.13813        -0.062448      0.058208      0.015842
O	      4.17129      6.52167      4.24492        -0.040522      0.084639     -0.031265
O	      4.24074      4.26017      6.54274        -0.005753      0.041374     -0.182792
O	      6.38368      6.39210      6.30923         0.029003     -0.009690      0.084708
O	      6.22583      4.25782      8.55433         0.007495     -0.029695      0.044828
O	      8.46019      6.54094      8.52977        -0.002560     -0.014382     -0.013870
O	      2.02816      6.39811      6.35699        -0.008246     -0.006728     -0.024115
O	      4.22144      8.64381      6.20338        -0.046782      0.027749     -0.020018
O	      4.17189      6.26725      8.61739         0.014841     -0.011271      0.082640
O	      6.49442      8.61166      8.59071        -0.001916     -0.051202      0.058546
O	      6.28172      6.37350     10.60997         0.000751      0.024735     -0.018668
O	      8.49165      8.56641     10.48463        -0.027068      0.018495      0.010048
