# total energy = -139.19937683 eV
 
CRYSTAL
PRIMVEC
2.015764 -4.278781 2.015698 
-2.024905 -4.287818 -2.024791 
4.056032 -0.004454 -8.096344 
PRIMCOORD
24 1
Li	      3.03127     -5.36028     -9.10192        -0.003626     -0.000739      0.005842
Li	      0.98733     -1.07175     -3.01056         0.008771     -0.000613     -0.009544
Li	      3.06654     -5.35602     -5.09825        -0.001520      0.000510      0.001455
Li	      0.96320     -7.49628     -0.97776         0.001015      0.000771     -0.007384
Li	      3.06008     -3.21158     -3.06816        -0.003949     -0.000397      0.002284
Li	      3.05298     -3.21666     -7.09884        -0.002275     -0.000967      0.005064
Mn	      5.03220     -5.35622     -7.06281        -0.056204     -0.005670      0.042040
Mn	      0.98971     -5.35660     -3.02158         0.033277     -0.001917     -0.031182
Mn	      1.02987     -3.21718     -5.07785         0.014786      0.010297     -0.011602
Ni	      3.05866     -1.07308     -5.08141         0.003463      0.002663     -0.001893
Ni	      0.99852     -3.21248     -1.00483         0.015814      0.000333     -0.019910
Ni	      3.03536     -7.50000     -7.09090        -0.027725      0.003052      0.025171
O	      1.00942     -3.44431      0.99985         0.003632     -0.037655      0.005134
O	      1.02390     -3.41758     -3.09776         0.004647     -0.010119     -0.093460
O	      3.01295     -7.64434     -4.98371        -0.001412      0.153512      0.119531
O	      1.04643     -1.17242     -1.02342         0.017887      0.146337      0.002337
O	      2.95845     -5.54871     -3.03312        -0.125425      0.002147      0.006140
O	      3.10893     -5.45279     -7.09552         0.158080      0.135197     -0.004960
O	     -1.00592     -2.98040     -1.01473        -0.007326      0.037859     -0.006687
O	      1.06561     -7.29574     -3.05627         0.097263      0.010775      0.001052
O	      2.95170     -3.06844     -5.04522        -0.124351     -0.164135      0.004506
O	      1.01650     -5.25234     -1.05325         0.000797     -0.147224     -0.007954
O	      1.00064     -5.16445     -4.99074        -0.008127     -0.003229      0.106145
O	      3.04908     -0.98051     -7.15563         0.002508     -0.130787     -0.132126
