# total energy = -249.49571622 eV
 
CRYSTAL
PRIMVEC
-0.018117 6.372288 6.346077 
6.441155 -0.028051 6.356182 
4.268484 4.229024 0.007020 
PRIMCOORD
36 1
Li	      6.36531      6.39048     12.59443         0.023667     -0.000428     -0.022723
Li	      8.52216      8.48692     12.58732        -0.026389     -0.019358     -0.034856
Li	      8.66932     10.49404     10.64373        -0.005735      0.030636     -0.023605
Li	      4.29196      4.20207      4.24420        -0.001148     -0.026352     -0.013387
Li	      4.36357      2.07943      6.39444        -0.020180      0.004397      0.003598
Li	      6.45805      4.16474      6.36590         0.015606      0.033540      0.036826
Li	      6.30473      4.43053     10.60347        -0.029155      0.048672      0.033317
Li	      8.41555      6.41940     10.59339        -0.076905      0.057496      0.032662
Li	      6.49760      6.24857      8.59056         0.045154     -0.019889      0.020360
Sc	      6.46781      2.02581      4.35631         0.020923     -0.067066     -0.017596
Ti	      4.28297      6.33477      6.22301        -0.052762      0.066745     -0.053535
Mn	      6.41465      2.07974      8.41185        -0.010481     -0.018395      0.051193
Mn	      6.47420      6.27653      4.28770         0.037053     -0.079616     -0.057930
Mn	      4.39705      4.20730      8.53994        -0.010771      0.007988      0.038423
V	      4.28086      2.11797      2.12887         0.066291     -0.014237     -0.159926
V	      8.48928      4.27489      8.34464        -0.021124      0.017754      0.038541
V	      2.13957      4.23440      6.25730        -0.139060      0.128187      0.161541
Cr	      2.13386      0.03692      2.08480        -0.035795     -0.058052     -0.137177
O	      2.18899      2.12236      2.09310        -0.006487      0.001400     -0.011695
O	      4.28708      4.13217      2.08857        -0.035589      0.021264      0.005321
O	      4.21818      2.08334      4.10301        -0.064667     -0.006276      0.079722
O	      6.39676      4.31180      4.10831        -0.009392      0.052637      0.019325
O	      6.37914      2.15182      6.32573        -0.020352      0.008055     -0.079686
O	      8.57450      4.19863      6.59607        -0.001181      0.020189     -0.056652
O	      2.19107      4.03713      4.26855         0.045185     -0.072999     -0.022050
O	      4.36499      6.31101      4.35383         0.089904     -0.042822      0.223997
O	      4.15665      4.35158      6.40781         0.083625      0.062551     -0.060214
O	      6.23888      6.37474      6.42418        -0.062319     -0.082444      0.009170
O	      6.58051      4.22135      8.52584         0.084620      0.028069      0.034855
O	      8.55685      6.17547      8.54227        -0.009743     -0.080860      0.033268
O	      2.26424      6.33044      6.39529         0.133663     -0.011186     -0.076492
O	      4.37187      8.37151      6.41617         0.039202     -0.139134     -0.047478
O	      4.12505      6.46506      8.34835        -0.025706     -0.017021     -0.037045
O	      6.34935      8.61952      8.38688         0.009067      0.065670     -0.001529
O	      6.39009      6.41298     10.60111        -0.008621      0.097859      0.029701
O	      8.49693      8.48658     10.58109        -0.020398      0.003025      0.061754
