# total energy = -240.20921571 eV
 
CRYSTAL
PRIMVEC
-0.001211 6.328862 6.213027 
6.374722 0.005914 6.204646 
4.250534 4.214538 0.003066 
PRIMCOORD
36 1
Li	      6.38432      6.30780     12.31998         0.058801     -0.042285      0.018040
Li	      4.35646      6.34932     10.38658        -0.019431      0.034585     -0.007151
Li	      6.35812      8.34219     10.38228        -0.001180      0.024418     -0.032195
Li	      2.09782      4.20765      2.22384        -0.023284      0.016053     -0.117904
Li	      2.13682      2.30107      4.10674         0.033969     -0.065007     -0.024619
Li	      4.07146      4.20930      4.10421         0.016982     -0.002323     -0.016628
Li	      6.37598      4.21164      6.21284        -0.016058      0.017852     -0.021595
Li	      0.15847      4.28831      4.09454        -0.014628      0.041981      0.014539
Li	      2.15866      4.19105      6.05623         0.036086      0.042335      0.100297
Sc	      4.31861      6.28729      6.03260        -0.070329     -0.048225      0.115089
Ti	      8.44519      2.25899      6.11172         0.071549      0.162069     -0.005839
V	      6.30735      4.19940      2.19626         0.009949      0.044772     -0.008894
V	      4.23028      2.15594      2.17018         0.119306     -0.104005     -0.086855
V	      4.24441      2.09194      6.10308         0.045444      0.010005      0.046808
Cr	      8.50211      8.43245      8.32798        -0.057656      0.013276     -0.007737
Cr	      6.38808      6.30133      8.32982        -0.025546      0.092845     -0.094683
Co	      2.06910      6.18217      4.19714         0.217895      0.317164      0.075592
Cu	      0.02589      2.15844      2.12728        -0.068164      0.023755      0.069903
O	      2.16174      2.00815      1.99917         0.114275      0.094746      0.036876
O	      4.39057      4.10672      2.06445        -0.096734     -0.157603      0.000190
O	      4.27874      2.09760      4.15003        -0.042716      0.012189      0.024741
O	      6.43120      4.23012      3.92694         0.039300     -0.013217      0.134138
O	      6.40496      2.11763      6.33046         0.097128     -0.033369     -0.124851
O	      8.48580      4.13372      6.20700         0.021318     -0.335700     -0.000369
O	      2.11957      4.23026      4.13358        -0.102260      0.558589     -0.040090
O	      4.19334      6.32278      4.05404        -0.417595     -0.163121     -0.031915
O	      4.25952      4.20335      6.30536         0.020289      0.028769      0.003311
O	      6.43790      6.31152      6.25299        -0.129170     -0.007427     -0.015331
O	      6.20435      4.32420      8.30761         0.167464      0.054594      0.002556
O	      8.39704      6.43331      8.16280        -0.230413     -0.079408      0.022588
O	      2.20048      6.41430      6.37846        -0.027264      0.128997     -0.091619
O	      4.08396      8.39398      6.33769        -0.155142     -0.049272     -0.094654
O	      4.29026      6.32987      8.27482        -0.049537     -0.118512     -0.045378
O	      6.38900      8.45160      8.27901         0.106294      0.120066      0.037031
O	      6.42136      6.35074     10.27733         0.423413     -0.233658      0.064744
O	      8.45284      8.40921     10.43593        -0.052359     -0.385930      0.101864
