# total energy = -241.03119518 eV
 
CRYSTAL
PRIMVEC
-0.005015 6.345920 6.396350 
6.207800 0.027458 6.364015 
4.145502 4.216136 0.011256 
PRIMCOORD
36 1
Li	      4.14062      6.37101     10.62556         0.041551     -0.055816     -0.018741
Li	     10.25336      6.35305      8.56875         0.019872      0.029191      0.016736
Li	      8.23429      4.43620      8.55370        -0.013264     -0.000040      0.067647
Li	      4.06447      4.26032      4.36863         0.015927     -0.016228      0.022221
Li	      8.25147      6.38479      6.50869         0.005746     -0.000919      0.086910
Li	      2.11475      6.25858      4.18183        -0.026290     -0.007562     -0.004840
Li	      2.16376      4.21957      6.27871         0.003798      0.003874     -0.015826
Li	      4.14281      6.28299      6.35889         0.011232      0.026665      0.019219
Li	      6.30743      6.28221      8.48720        -0.020104      0.011921      0.005830
Sc	      8.30885      8.34875      8.50930         0.200285      0.058522      0.107062
Ti	     10.27571      4.22123      6.36714        -0.019195     -0.118883     -0.115824
V	      2.06971      0.02591      2.13086         0.053318     -0.019942     -0.069118
V	      2.01230      2.21325      4.27397        -0.140628     -0.012760      0.072629
V	      6.22306      4.27696      6.39541         0.042622      0.067046      0.072969
Cr	      4.13174      8.43494      8.50601         0.004894     -0.086703     -0.099585
Cr	      6.18024      2.11142      4.27051        -0.048746     -0.018644     -0.065302
Co	      6.24044      4.29871     10.58229         0.141473     -0.259438     -0.044148
Ni	      8.26177      8.47589     12.75234         0.034252     -0.035821     -0.000934
O	      2.14195      2.08845      2.17706        -0.000757      0.002931      0.076823
O	      4.19518      4.15287      2.00259        -0.049274     -0.047041     -0.090126
O	      4.08893      2.10957      4.10990         0.005482      0.035350      0.010286
O	      6.19548      4.19427      4.20863        -0.017136     -0.015041      0.073840
O	      6.20602      2.12659      6.28742        -0.137400     -0.089851     -0.057002
O	      8.31786      4.21422      6.38870         0.133597      0.084091      0.009027
O	      2.06922      4.12246      4.30766        -0.440806      0.071301     -0.137550
O	      4.34622      6.32112      4.22933         0.063030      0.262423      0.091004
O	      4.25474      4.24456      6.41536        -0.020796     -0.014263      0.015791
O	      6.28244      6.24604      6.21153        -0.022369      0.039546     -0.082139
O	      6.20445      4.28580      8.49290        -0.017220     -0.054198     -0.045251
O	      8.28020      6.39308      8.54448         0.016866      0.110724     -0.025164
O	      1.92916      6.39052      6.50497        -0.099276     -0.104107     -0.045375
O	      4.11172      8.57047      6.42909         0.160537      0.125300      0.033652
O	      4.03863      6.43021      8.46764         0.014282      0.036524      0.021611
O	      6.14751      8.48566      8.63698        -0.054059     -0.013978      0.040678
O	      6.19540      6.44381     10.80480        -0.040541     -0.015119      0.134652
O	      8.23012      8.48263     10.67276         0.199096      0.020944     -0.061663
