# total energy = -243.26316848 eV
 
CRYSTAL
PRIMVEC
0.018593 6.332878 6.350830 
6.264376 0.016430 6.353275 
4.179700 4.226852 0.007343 
PRIMCOORD
36 1
Li	      6.24165      0.03960      6.32903         0.005730     -0.004536     -0.016619
Li	      6.27589     10.43316      8.45799         0.010475      0.052745      0.042437
Li	      6.38382      8.27282     10.40418        -0.007358      0.007989      0.004119
Li	      6.20173      2.21483      8.43608         0.001468      0.006839      0.006969
Li	      8.27303      4.28719      8.44449         0.030058      0.005348      0.024256
Li	      6.26818      4.22867      6.62337        -0.035363      0.012873     -0.053385
Li	      8.18841      6.42395     10.55605         0.082785     -0.048903      0.029020
Li	      8.39336      8.48717      8.57938        -0.000157     -0.016681     -0.042927
Li	      6.27489      6.29804      8.57205         0.001783     -0.003445     -0.021967
Sc	      8.24713      2.16542      6.35038        -0.027735      0.004449      0.008698
Ti	      2.11720      2.03983      4.07827         0.081943     -0.244436     -0.061480
V	      4.19068      4.25802      4.14405         0.017722      0.084640     -0.016268
V	      8.44830      6.28541      6.50888        -0.023505      0.060761     -0.269262
V	      4.22135      6.32715      6.48037         0.039629     -0.265368     -0.038570
Cr	      6.26143      4.29292     10.48172         0.058815      0.007656      0.100027
Cr	      6.28387      8.48885      6.40864         0.084833      0.007815     -0.012332
Co	      4.28185      8.49204      8.48645        -0.017519     -0.051772      0.072838
Co	      4.23161      6.32479     10.51343        -0.045870     -0.054495     -0.014655
O	      2.11999      2.13865      2.19892         0.075226      0.009777      0.105898
O	      4.16456      4.20406      2.24750        -0.003275     -0.073356      0.048401
O	      4.09227      2.16801      4.38021        -0.071863      0.134390     -0.049513
O	      6.22812      4.37659      4.23988         0.285865      0.379272     -0.044877
O	      6.20452      2.11068      6.34534         0.037693     -0.017159      0.054334
O	      8.34366      4.30672      6.31763        -0.008297     -0.035873      0.009686
O	      2.11583      4.14676      4.31050        -0.309527     -0.035715      0.021206
O	      4.33129      6.35983      4.34811         0.017823     -0.195806     -0.086015
O	      4.13271      4.18640      6.27012        -0.048939     -0.082109      0.022600
O	      6.29743      6.43778      6.26070         0.066133     -0.030369      0.001041
O	      6.27028      4.21087      8.57411        -0.019417      0.014523     -0.015136
O	      8.34566      6.35186      8.23030        -0.014863     -0.018452      0.325626
O	      2.23477      6.31071      6.34503        -0.176055      0.135018     -0.015499
O	      4.23221      8.42291      6.28611        -0.082650      0.051575      0.009621
O	      4.18999      6.41109      8.42150         0.052271      0.169103     -0.140647
O	      6.27207      8.45561      8.36873        -0.081925      0.021428      0.004676
O	      6.26201      6.24853     10.56880        -0.015589     -0.025333     -0.001222
O	      8.42814      8.43270     10.64470         0.039654      0.037607      0.008921
