# total energy = -237.15290558 eV
 
CRYSTAL
PRIMVEC
0.011523 6.287800 6.301002 
6.226963 0.011455 6.301275 
4.171267 4.211724 -0.012023 
PRIMCOORD
36 1
Li	      6.37204      0.18444      6.28942        -0.009249     -0.047430      0.049596
Li	      2.07818      6.30705      8.26827        -0.000836      0.033208      0.046825
Li	      6.22820      2.10993      4.41201        -0.019040      0.000208     -0.020967
Li	      6.15269      2.11367      8.23069        -0.024060      0.021436      0.107890
Li	      4.32730      2.14528      6.38158         0.034335     -0.021050     -0.032728
Li	      6.18279      4.05609      6.31598         0.023319      0.034609     -0.007235
Li	      2.08929      6.31444      4.28025         0.000436     -0.012337     -0.044976
Li	      2.11203      4.28702      6.32961        -0.023395      0.029174     -0.033880
Li	      6.26383      6.28609      8.23512        -0.026792     -0.021516     -0.090528
Sc	      6.23303      6.28106      4.32762        -0.054322     -0.058254     -0.044940
Ti	      6.20047      4.27930     10.53365        -0.017041      0.091838     -0.062579
V	      4.32697      8.38646      8.35772        -0.092447     -0.047497     -0.025136
V	      8.29408      4.19699      4.30508        -0.111936      0.086148     -0.027962
V	      8.31229      4.34005      8.25210        -0.018310     -0.039181      0.023096
Cr	      4.19292      4.23702      4.21946        -0.021313      0.024495     -0.029910
Cr	      8.29124      8.34811      8.32332        -0.081969      0.042705      0.015555
Cu	      4.12769      6.25483      6.31498         0.070897      0.012925     -0.048627
Ni	      1.98497      2.01494      0.04219         0.100314      0.151014     -0.008333
O	      2.34311      2.23769      2.07975         0.031645     -0.020904      0.095626
O	      4.16399      4.09824      2.20620         0.017945     -0.020659     -0.011047
O	      4.18254      2.14787      4.08358         0.004783      0.035411      0.063309
O	      6.21655      4.22516      4.19380        -0.017191      0.012729      0.027265
O	      6.26639      2.09344      6.31402        -0.150237      0.001810      0.051431
O	      8.29009      4.18524      6.29343         0.020426      0.065447      0.002469
O	      2.04931      4.20284      4.06341        -0.016267      0.021780      0.051957
O	      4.19782      6.27226      4.02525         0.044871      0.002661     -0.164010
O	      4.12036      4.22679      6.29814         0.011572     -0.121298      0.007598
O	      6.12387      6.32017      6.26952         0.070847      0.009310      0.030968
O	      6.15860      4.20051      8.55308        -0.057945      0.043992      0.057366
O	      8.25695      6.33576      8.35663        -0.001781      0.029949      0.006177
O	      2.18591      6.32492      6.30051        -0.080936     -0.155850     -0.034477
O	      4.16534      8.34996      6.24714         0.080590      0.086403     -0.032102
O	      4.14697      6.31733      8.61891         0.006449     -0.048742      0.115720
O	      6.15136      8.38293      8.36083         0.146715      0.002124     -0.020112
O	      6.14717      6.13016     10.57135         0.068823     -0.176831      0.026098
O	      8.39774      8.40965     10.38825         0.091101     -0.047826     -0.039397
