# total energy = -238.72184313 eV
 
CRYSTAL
PRIMVEC
0.018098 6.202799 6.404351 
6.292638 0.022500 6.399514 
4.226339 4.163519 -0.016018 
PRIMCOORD
36 1
Li	      2.11478      8.18342      6.47934        -0.060004      0.038122      0.048961
Li	      2.09025      6.26638      8.36394        -0.066007     -0.034444      0.057177
Li	      8.42990      4.17485      4.29856         0.018591      0.017330     -0.000535
Li	      0.05271      2.05229      2.14351        -0.001153     -0.002959      0.040540
Li	      8.39839      4.15286      8.51095         0.040027     -0.015636      0.048861
Li	      4.17961      4.25220      4.26100        -0.035895     -0.009613     -0.017304
Li	      2.17374      6.16111      4.41926        -0.024064      0.000707     -0.046837
Li	      2.09938      4.32701      6.37917         0.011382     -0.125314      0.029319
Li	      4.02195      6.19117      6.37043        -0.016545     -0.034078     -0.023045
Sc	      6.35935      2.18554      4.27362        -0.010520     -0.058083     -0.098670
Ti	      4.28476      8.27315      4.37812         0.325068     -0.119873     -0.072494
V	      4.12326      2.15293      2.08690        -0.071883      0.277358      0.078005
V	      8.44379      6.22745      6.39197         0.076907      0.264947     -0.127610
V	      4.21379      4.18987      8.50417        -0.090770     -0.147324     -0.033468
Cr	      6.29880      6.17504      4.24177         0.027726      0.130701      0.001574
Cr	      6.32649      6.20694      8.49249         0.143200      0.122102     -0.047219
Cu	      0.07473      6.22345      6.41645        -0.020311      0.098372      0.092043
Cu	      6.40038      4.13559      6.38513        -0.077914      0.083536     -0.094033
O	      2.01345      6.23462      6.38612        -0.098008      0.022851      0.028680
O	      2.21376      2.04273      2.25101         0.125159      0.042893      0.020090
O	      4.21267      3.92475      2.20085        -0.001403     -0.247958     -0.011722
O	      4.16011      2.06013      4.22403        -0.025094      0.025169     -0.028079
O	      6.31050      4.18760      4.17324         0.021809     -0.050188      0.053250
O	      6.28400      2.11311      6.38699         0.277481     -0.051227      0.003251
O	      8.52626      4.27859      6.40872         0.134052     -0.351875      0.020737
O	      1.97084      4.05398      4.31883        -0.427138     -0.064567      0.022682
O	      4.28564      6.32421      4.25669         0.063353      0.304669      0.093237
O	      4.29164      4.09285      6.51658         0.060464      0.106338      0.109696
O	      6.44882      6.15753      6.36744        -0.308264     -0.106567      0.029499
O	      6.25690      4.20687      8.72171         0.043547      0.039833      0.020584
O	      8.34801      6.31858      8.42772        -0.088592      0.157720      0.042031
O	      4.16850      8.31124      6.36345        -0.015581     -0.042898     -0.062517
O	      4.31098      6.29268      8.44781         0.047918     -0.116918     -0.006802
O	      6.28860      8.22612      8.52499        -0.095506     -0.071940      0.061158
O	      6.32499      6.18047     10.49170         0.006560     -0.092638     -0.182163
O	      8.46716      8.33465     10.52556         0.111408      0.011450     -0.048880
