# total energy = -244.89934703 eV
 
CRYSTAL
PRIMVEC
0.035017 6.285310 6.252813 
6.377738 0.022196 6.265810 
4.269822 4.216886 -0.003240 
PRIMCOORD
36 1
Li	      6.42933      6.27514     12.38241         0.045120     -0.037094     -0.063411
Li	      6.36372      4.20987      2.13045        -0.022152     -0.001730     -0.033174
Li	      8.47526      4.23095      4.25397        -0.041774     -0.048421     -0.006170
Li	      6.39601      2.20426      4.23825         0.033985      0.064722     -0.023009
Li	      6.40619      4.20591      6.15352         0.009510      0.019730     -0.037199
Li	      4.33881      8.43602      4.27082         0.015832     -0.014086      0.018215
Li	      2.13109      6.24585      4.26679         0.003236      0.000723      0.010688
Li	      2.12911      4.21636      6.17552        -0.001810     -0.006175     -0.018908
Li	      4.27990      6.32625      6.18348        -0.028500      0.019740     -0.017489
Sc	      4.22652      4.24007      8.33042        -0.042226      0.123699      0.076654
Ti	      6.35108      6.32924      8.41940        -0.023656      0.061084      0.457023
V	      8.59703      8.34000     12.37322        -0.035302      0.023863     -0.032493
V	      4.29798      6.27926      2.07948         0.066790     -0.032743      0.055078
V	      6.39885      6.26348      4.23336        -0.012892      0.006548     -0.048186
Cr	      4.32349      8.42321      8.30637        -0.070675     -0.024191     -0.113889
Cr	      8.50888      4.23311      8.36003        -0.139706     -0.043503      0.135290
Fe	      4.31891      2.04806      6.20319         0.099319      0.085206     -0.099513
Co	      4.29484      4.21779      4.32350         0.009616      0.177505     -0.305868
O	      2.18291      2.18564      2.05763         0.111936      0.009365      0.033632
O	      4.14775      4.21832      2.10434         0.098225     -0.089740      0.030458
O	      4.18093      2.09421      4.06584         0.040120      0.032644      0.027104
O	      6.38714      4.30372      4.12734        -0.166818      0.029515      0.067383
O	      6.40305      2.10616      6.35001         0.109661     -0.063439      0.020130
O	      8.51361      4.03874      6.34890        -0.045796      0.131989      0.089232
O	      2.14844      4.11950      4.10649         0.150182     -0.090858     -0.100305
O	      4.38142      6.33327      4.06711        -0.099019     -0.057740      0.029033
O	      4.24473      4.24533      6.32658        -0.014569     -0.066292      0.136657
O	      6.52247      6.28238      6.34695        -0.088197      0.017383      0.095355
O	      6.41640      4.20928      8.35694        -0.028914      0.030261     -0.028672
O	      8.51335      6.29287      8.38182         0.010930     -0.047120      0.089525
O	      2.15510      6.53358      6.28937        -0.102810     -0.036993      0.024054
O	      4.18374      8.42514      6.31575         0.062208     -0.043724      0.048216
O	      4.41792      6.35199      8.31420         0.174125      0.016669      0.028939
O	      6.36377      8.32776      8.31946        -0.009710     -0.131123     -0.005275
O	      6.44982      6.30246     10.24276        -0.067975      0.006767     -0.505657
O	      8.54175      8.45235     10.46961         0.001708     -0.022438     -0.033447
