# total energy = -241.42045104 eV
 
CRYSTAL
PRIMVEC
0.012787 6.360793 6.338552 
6.286249 0.016041 6.335371 
4.204384 4.252156 -0.003034 
PRIMCOORD
36 1
Li	      2.04623      2.15559      0.10651        -0.025418      0.035314      0.130264
Li	      6.23665      4.41211      2.26271         0.018460      0.067361      0.034236
Li	      4.07132      2.19122      2.29192        -0.026449      0.046186      0.009297
Li	      4.11052      0.05371      4.15875        -0.005183     -0.014655     -0.079209
Li	      6.23798      2.19833      4.19040        -0.011047     -0.023388     -0.048329
Li	      0.16875      2.02730      2.12558        -0.025681     -0.025833     -0.007022
Li	      2.15211      2.02158      4.05301        -0.026940     -0.062573      0.043861
Li	      4.28558      4.19238      4.07132         0.027601     -0.025183     -0.057520
Li	      6.30454      4.27166     10.56591         0.009415      0.034816      0.006082
Sc	      4.15444      2.15060      6.15648        -0.001010     -0.067576     -0.144056
Ti	      4.13966      6.57438      6.29532        -0.003455      0.269546     -0.199686
V	      2.12320      6.37209      4.25181        -0.021891      0.049101     -0.051718
V	      8.42416      8.49060      8.51063         0.003842      0.032585      0.032683
V	      6.22415      6.40904      8.49825         0.006869     -0.037856      0.091139
Cr	      4.21587      4.26044      0.02926         0.012237     -0.018576      0.031084
Cr	      2.13715      4.14567      2.17463        -0.020754     -0.064137     -0.018380
Fe	      6.33063      4.14142      6.16095         0.047412     -0.022058      0.127966
Cu	      2.11759      4.23582      6.26169         0.011187      0.018726     -0.011073
O	      2.06793      2.23725      2.14663         0.054272      0.011785     -0.028271
O	      4.11872      4.24503      1.99644         0.058455      0.054381     -0.039160
O	      4.18534      2.12304      4.25403        -0.011907     -0.017393      0.121022
O	      6.32851      4.21900      4.32323        -0.049317     -0.000908     -0.224593
O	      6.23883      2.09885      6.34849        -0.024140     -0.078160      0.027835
O	      8.43381      4.26737      6.43300         0.020769      0.013294      0.031030
O	      2.13891      4.40522      4.20377         0.007117      0.037128      0.045777
O	      4.15738      6.37765      4.42620         0.003420      0.054548      0.275145
O	      4.25916      4.28405      6.42015        -0.047951     -0.002816     -0.000985
O	      6.19310      6.22506      6.39897        -0.052727     -0.093317      0.026775
O	      6.30798      4.34149      8.37202        -0.052473      0.027560      0.004483
O	      8.29342      6.33672      8.48842         0.006015      0.019948     -0.024336
O	      2.15463      6.47633      6.34001         0.098577      0.069436      0.012357
O	      4.25541      8.46888      6.33696         0.022107     -0.173427     -0.021690
O	      4.24264      6.32466      8.35494        -0.004566     -0.069101     -0.109631
O	      6.42680      8.34329      8.33497        -0.015972     -0.039171     -0.003286
O	      6.40706      6.37005     10.62155         0.006153      0.011372      0.029416
O	      8.45397      8.38126     10.42927         0.012972     -0.016958     -0.011511
