# total energy = -241.82930198 eV
 
CRYSTAL
PRIMVEC
-0.021161 6.423197 6.258658 
6.330499 -0.009201 6.247501 
4.215648 4.269726 -0.001687 
PRIMCOORD
36 1
Li	      8.36549      2.15676      6.32548        -0.017629      0.012215     -0.005461
Li	      2.14862      0.20157      2.19415        -0.055327      0.021522     -0.030761
Li	      4.02726      2.05292      2.19686        -0.072132      0.011868     -0.008217
Li	      8.26134      4.40423      4.16793         0.043384     -0.030053     -0.016462
Li	      6.31019      2.19911      4.20057         0.025559      0.002764     -0.012746
Li	      2.08874      4.15805      2.08658         0.005556     -0.013011      0.006217
Li	      2.26166      1.97352      4.03599        -0.058519      0.019974      0.065048
Li	      4.23775      2.02644      6.14719         0.032496     -0.071840      0.012698
Li	      6.43625      4.23821      6.12377         0.054469     -0.022237      0.023684
Sc	      4.33697      4.10840      4.10374         0.077114     -0.096049     -0.112241
Ti	      4.19267      6.51381      6.23958         0.080700     -0.052901      0.115276
V	     10.37519      4.32965      6.25005        -0.119687      0.111641      0.086186
V	      6.29908      8.57636      6.26809        -0.022858      0.006828      0.080355
V	      8.41089      8.54790      8.36534         0.051695      0.017192      0.071335
Cr	      0.06237      2.16201      2.06478        -0.013543     -0.038312     -0.042155
Cr	      6.33766      6.39144      8.37469         0.056993     -0.057352     -0.021993
Fe	      4.20041      8.54554      4.17429        -0.003033      0.068181     -0.077674
Ni	      8.41012      6.42846     10.41591         0.010841      0.017666      0.004361
O	      1.97272      2.19002      2.09238         0.068486     -0.015035     -0.010294
O	      4.22683      4.40918      1.98489        -0.048978     -0.054422      0.043789
O	      4.20234      2.16779      4.16808         0.013443      0.024662      0.016883
O	      6.30179      4.23620      4.18405        -0.071904      0.015075     -0.007791
O	      6.34461      1.95270      6.34259        -0.019318     -0.036053     -0.138788
O	      8.63791      4.22228      6.21991         0.006381     -0.005426     -0.024602
O	      2.06424      4.34209      4.28073         0.113877     -0.044824      0.087506
O	      4.18627      6.38717      4.21897         0.049588     -0.038652      0.240450
O	      4.14660      4.46214      6.26390        -0.057628      0.138371     -0.019271
O	      6.16790      6.49263      6.34427        -0.179948      0.043910      0.003559
O	      6.24561      4.27310      8.23821        -0.018821      0.099519     -0.030605
O	      8.40113      6.44916      8.33743        -0.063590      0.036403     -0.121566
O	      2.13992      6.36883      6.28372         0.143101     -0.028611      0.073724
O	      4.22393      8.54734      6.33795         0.093719     -0.172864      0.027002
O	      4.28936      6.38614      8.21786         0.052465      0.008088     -0.136289
O	      6.43232      8.37765      8.26359        -0.000927      0.003099     -0.051057
O	      6.37222      6.41437     10.46677        -0.089436      0.027999     -0.075833
O	      8.50270      8.47909     10.32338        -0.066589      0.090665     -0.014266
