# total energy = -246.08657142 eV
 
CRYSTAL
PRIMVEC
0.036231 6.243812 6.302556 
6.467975 -0.016191 6.354455 
4.302731 4.187445 -0.001246 
PRIMCOORD
36 1
Li	      8.45931      2.08719      6.33313         0.013533     -0.028466     -0.044647
Li	      6.44776      2.12803      8.28610        -0.030558      0.018342     -0.054704
Li	      6.51399      6.24354      4.37591         0.062458     -0.062554      0.014763
Li	      8.57802      6.25980      6.34483         0.005830      0.010091      0.003444
Li	      6.48110      4.23515      6.43681        -0.015178      0.015473      0.040456
Li	      8.59553      6.27660     10.55973         0.001630      0.088983      0.018051
Li	      4.50918      6.19686      6.41982         0.041678      0.008658     -0.044539
Li	      4.34132      4.17720      8.41860        -0.004579      0.018339      0.055436
Li	      6.46609      6.20336      8.30019         0.038478     -0.050612      0.012932
Sc	      4.26064      8.24734      4.17179        -0.371962      0.051480      0.085794
Ti	      4.33684      4.27011      4.34467         0.117456      0.218014      0.236305
V	      2.15554      0.09627      2.07696        -0.125818      0.053595     -0.078664
V	      4.33389      8.31271      8.41017        -0.119915      0.052460     -0.030501
V	      8.58459      4.28515      8.39556        -0.036287      0.030565      0.137434
Cr	      6.46892      0.02085      6.33561         0.101169     -0.022576      0.093332
Cr	      6.51047      8.27855      6.32855        -0.078459     -0.047066      0.011648
Fe	      8.57672      4.16983      4.28281         0.129873      0.154183     -0.066760
Fe	      6.56389      8.30474     10.59546         0.047824     -0.105449     -0.148622
O	      2.28489      2.11444      2.07309         0.057306      0.087417      0.030391
O	      4.25105      4.16840      2.09452         0.041440      0.048299      0.008926
O	      4.32978      2.18273      4.11763        -0.045674      0.286821     -0.104255
O	      6.31164      4.21774      4.12821        -0.168097      0.031315     -0.074680
O	      6.47054      1.98481      6.29005        -0.018347     -0.035047      0.243820
O	      8.72724      4.14181      6.46452        -0.067876     -0.009515     -0.396731
O	      2.26366      4.13603      4.19628         0.040041      0.009536      0.000652
O	      4.30209      6.14602      4.21183        -0.000962     -0.353142      0.001678
O	      4.24414      4.16711      6.20390         0.044025     -0.013833     -0.202553
O	      6.49723      6.34424      6.34066         0.045732      0.047615      0.073847
O	      6.66202      4.09840      8.47228         0.049125      0.004881     -0.055302
O	      8.64427      6.03009      8.46314         0.030336      0.005137      0.025376
O	      2.05518      6.17043      6.41051         0.026769      0.043660     -0.059491
O	      4.47624      8.38512      6.33887         0.024440     -0.010368     -0.021465
O	      4.23508      6.30458      8.43506         0.082424     -0.212910      0.368572
O	      6.41720      8.43253      8.38891        -0.036319      0.000594     -0.114726
O	      6.49404      6.13968     10.65453         0.141406      0.131535      0.048196
O	      8.72586      8.33125     10.50881        -0.022942     -0.465458     -0.013412
