# total energy = -88.68352381 eV
 
CRYSTAL
PRIMVEC
0.000049 2.104359 -2.104362 
-0.000557 2.104360 2.104362 
17.267115 -0.001735 -0.001915 
PRIMCOORD
16 1
Li	      2.34082      2.10684      0.00319         0.021557     -0.000740     -0.001919
Li	      4.49786      2.10494     -2.10193        -0.006689     -0.000712     -0.002703
Li	      6.28817      2.10340      0.00042         0.014192     -0.000041      0.001685
Li	      8.44841      4.20654     -0.00225        -0.022303      0.000059      0.000621
Mn	      0.05339      0.00210      0.00193         0.199351     -0.000897      0.000058
Mn	     10.73889      2.10290     -0.00208        -0.192813      0.000306      0.000888
Ni	     13.00366     -0.00078     -0.00147        -0.039476      0.000406      0.000703
Ni	     15.05624      2.10427     -0.00067         0.039557     -0.000646     -0.000302
O	     15.10603     -0.00009     -0.00067         0.080703      0.000688      0.001519
O	     17.08872      2.10471     -0.00005         0.072960     -0.000527      0.000309
O	     10.97102      2.10295      2.10226        -0.077214      0.000258      0.000966
O	     12.95442      2.10357     -0.00151        -0.083913     -0.000422      0.000150
O	      6.49982      2.10315     -2.10394         0.042256      0.001395     -0.000737
O	      8.96818      2.10242     -0.00226         0.110853      0.001351      0.001672
O	      1.82442      2.10677     -2.10163        -0.119678     -0.000650     -0.000990
O	      4.28883      2.10478      0.00243        -0.039343      0.000172     -0.001918
