# total energy = -93.10516855 eV
 
CRYSTAL
PRIMVEC
2.016763 -4.242203 2.016703 
-2.028974 -4.254723 -2.029237 
4.058227 -0.000013 -4.058420 
PRIMCOORD
16 1
Li	      3.01579     -5.31366     -5.05346         0.000297     -0.001882     -0.000196
Li	      3.06008     -5.31002     -1.05203         0.000631     -0.001000      0.000514
Li	      1.02812     -7.43578     -1.04910        -0.000213     -0.001770      0.001377
Li	      3.01280     -3.18687     -3.02124         0.000373     -0.001601      0.000732
Mn	      5.04591     -5.31037     -3.03800         0.001065      0.000174      0.002823
Mn	      1.02702     -3.18909     -1.03516        -0.002298     -0.000281     -0.001433
Ni	      1.02753     -5.31632     -3.06494        -0.001655      0.002434      0.001486
Ni	      3.01640     -7.43767     -3.03748         0.001620     -0.001096     -0.001299
O	      1.01303     -3.37091      0.94263         0.011587     -0.000396     -0.093166
O	      1.00155     -3.30821     -2.96345        -0.000834      0.139587      0.129942
O	      0.94882     -1.24965     -1.00975        -0.092647      0.000923      0.010402
O	      3.11789     -5.42985     -3.06331         0.129174      0.142083     -0.001103
O	     -0.95116     -3.00801     -1.02145         0.094071      0.000628     -0.010918
O	      2.95514     -3.06965     -1.01005        -0.130733     -0.140312      0.000429
O	      1.00170     -5.12889     -0.95753        -0.010312     -0.000040      0.093823
O	      3.05439     -0.94913     -3.12617        -0.000127     -0.137451     -0.133414
