# total energy = -239.26948894 eV
 
CRYSTAL
PRIMVEC
-0.019024 6.404200 6.270430 
6.191619 -0.000554 6.252674 
4.129247 4.259281 -0.002218 
PRIMCOORD
36 1
Li	      6.22963     10.65916      8.40490         0.016622      0.003709     -0.012117
Li	      4.18489      6.32072     10.41609        -0.032185      0.004472      0.042057
Li	      6.22201      8.42079     10.46160        -0.014965     -0.004170      0.046805
Li	      6.10785      2.23631      8.31574        -0.049717      0.037321      0.043547
Li	      8.15615      4.33063      8.34459        -0.028656      0.010676     -0.006751
Li	      6.19680      4.44825     10.34856        -0.007118     -0.051904      0.052176
Li	      8.11664      6.39301     10.36937         0.075744      0.014147      0.033907
Li	      6.20136      8.48025      6.24008        -0.043134     -0.032333     -0.037749
Li	      6.22178      6.35053      8.56356        -0.040372     -0.011364      0.006248
Sc	      4.09228      6.38674      6.28765        -0.018142      0.099362     -0.031754
Ti	      4.08958      4.26341      4.02314        -0.060701      0.091668     -0.274633
V	      6.17998      6.42332     12.43928         0.023893     -0.022779      0.134957
V	      4.22586      8.46516      8.37703         0.064438      0.071767     -0.040704
V	      8.21211      8.42949      8.50853         0.012636     -0.022705      0.074706
Cr	      8.22421      2.16212      6.23900         0.005602     -0.000942     -0.006440
Cr	      2.05079      2.12375      4.11311         0.000966      0.032675     -0.055577
Ni	      8.23482      6.39005      6.30606         0.061064     -0.074521     -0.014535
Ni	      6.19607      4.25289      6.25851         0.074369     -0.062626      0.043182
O	      2.22831      2.13689      2.06329         0.014711     -0.033920      0.022507
O	      4.18981      4.13650      2.10549        -0.047384     -0.002554      0.352052
O	      4.08942      2.24054      4.19027        -0.043783      0.042479     -0.145772
O	      6.07335      4.35947      4.19422        -0.101788      0.003732     -0.106289
O	      6.22209      2.13085      6.28451         0.094895      0.060061      0.015828
O	      8.29021      4.22059      6.31124        -0.007273     -0.105513     -0.016248
O	      2.16051      4.16089      4.12358         0.200622     -0.023814     -0.003662
O	      4.16377      6.21885      4.14398         0.022873     -0.089933      0.010997
O	      4.09159      4.26712      6.22962        -0.053899      0.080748     -0.040108
O	      6.18535      6.34778      6.11603        -0.135605      0.117728     -0.068832
O	      5.93542      4.30149      8.31049         0.000269     -0.019299      0.093847
O	      8.20478      6.52985      8.33179        -0.009022      0.027531      0.123877
O	      2.00727      6.54512      6.27578         0.120109      0.004036     -0.010990
O	      4.07318      8.52968      6.28799        -0.029144     -0.139221      0.067672
O	      4.15336      6.45354      8.34937        -0.010378     -0.067404     -0.050206
O	      6.29027      8.56761      8.35257        -0.066131     -0.020740     -0.008406
O	      6.17001      6.39419     10.55994        -0.010368      0.047842     -0.172435
O	      8.23385      8.53224     10.42897         0.020951      0.035789     -0.061160
