# total energy = -248.13211183 eV
 
CRYSTAL
PRIMVEC
0.021374 6.309252 6.333409 
6.356890 0.008373 6.346357 
4.244059 4.220866 -0.000517 
PRIMCOORD
36 1
Li	      4.20106     10.30806      6.28501         0.067828      0.101309      0.017990
Li	      4.28434      8.37580      8.29234         0.004624     -0.007758      0.058574
Li	      4.31432      6.31885     10.55972        -0.000762      0.024591     -0.021341
Li	      6.35306      8.39885     10.54573         0.011259     -0.010862      0.023923
Li	      2.17890      2.13777      4.26195         0.046831     -0.005409     -0.041210
Li	      4.26364      8.44961      4.40079        -0.030156     -0.050416     -0.067819
Li	      6.15425      8.38301      6.34850         0.048865      0.011647      0.024250
Li	      4.33048      6.45493      6.32950        -0.024886     -0.102778      0.009736
Li	      4.21829      4.28047      8.45307        -0.023166      0.018314      0.005638
Sc	      2.26656      6.22585      8.45596        -0.019434      0.088847     -0.075172
Ti	      2.07718      6.40429      4.40004        -0.104140      0.427391      0.392618
V	      6.34834      2.14875      8.47712         0.044468      0.019615     -0.184633
V	      4.24115      4.18252      4.23564         0.129349     -0.063841      0.091797
V	      6.29189      6.42340      8.48019        -0.027634      0.027312     -0.013881
Cr	      2.15261      4.18730      2.09730         0.002510     -0.101829     -0.033076
Cr	      4.25402      2.13136      6.31444         0.080443      0.058408      0.091982
Cr	      6.37333      4.23516      6.30010         0.038687      0.020719     -0.091446
Co	      2.27066      8.41067      6.27548        -0.162872     -0.294084      0.141728
O	      2.05469      2.15903      2.09546         0.270951      0.000451     -0.269400
O	      4.20491      4.33018      2.11522         0.026457     -0.092964     -0.052546
O	      4.22610      2.23209      4.36553        -0.018167     -0.110378      0.017950
O	      6.27014      4.26420      4.25652         0.032675      0.022780      0.009467
O	      6.31548      2.20590      6.43756         0.315253     -0.027644     -0.150767
O	      8.42468      4.30788      6.39265         0.001565     -0.016917      0.065381
O	      2.21705      4.30997      4.09915        -0.066364     -0.023113      0.040795
O	      4.11980      6.26508      4.12975        -0.062775      0.051413      0.030149
O	      4.38597      4.12891      6.30441        -0.024572     -0.005004      0.103282
O	      6.46575      6.24984      6.45423         0.008042      0.023514     -0.094443
O	      6.48024      4.20849      8.35629        -0.120330      0.050300      0.037433
O	      8.47672      6.24750      8.44011        -0.113094      0.072166      0.019964
O	      2.11497      6.23181      6.26714        -0.040657      0.062281     -0.202051
O	      4.21010      8.39104      6.32654        -0.503912      0.077785     -0.103464
O	      4.27063      6.30940      8.49928        -0.008479      0.015553     -0.012646
O	      6.36726      8.41537      8.45061        -0.026565     -0.022033     -0.021354
O	      6.52274      6.28593     10.46099         0.062836     -0.072802      0.108097
O	      8.48475      8.27330     10.57045         0.185321     -0.166567      0.144499
