# total energy = -245.89594683 eV
 
CRYSTAL
PRIMVEC
0.016968 6.289096 6.379878 
6.319734 0.019765 6.377155 
4.205830 4.183570 0.020487 
PRIMCOORD
36 1
Li	     10.49863      4.21478      6.40883        -0.049984      0.029203      0.010055
Li	      6.29882      2.13865      4.29624         0.027975      0.047473     -0.006703
Li	      8.38737      4.27705      8.57346         0.038014      0.043441      0.071519
Li	      6.26182      6.33869      4.36584        -0.017487      0.030479      0.052875
Li	      4.18644      4.21215      4.30395        -0.030898     -0.005123      0.021375
Li	      8.38253      6.32228      6.43393        -0.017541      0.031384      0.050232
Li	      0.06914      4.15699      4.18801        -0.013374     -0.000431     -0.072583
Li	      4.30864      6.24292      6.30862         0.010757     -0.010975     -0.011055
Li	      6.41452      6.20348      8.42945         0.039252     -0.041404     -0.046259
Sc	      2.14811      8.32686      6.32377         0.057395      0.079161     -0.186913
Ti	      4.36672      6.41671     10.62066         0.069412      0.045111     -0.184663
V	      4.19382      2.13754      2.16685         0.127785     -0.154554     -0.005523
V	      4.20279      6.28808      2.17812        -0.461237      0.120800     -0.008552
V	      2.07876      6.22133      4.25049        -0.086957      0.068119     -0.391976
Cr	      6.29256      4.16612      2.20369         0.276853     -0.178055      0.157401
Cr	      6.27867      4.25623      6.36715        -0.131300      0.022948     -0.162971
Cr	      6.32192      8.32002      6.39086         0.048875     -0.204854      0.103954
Cu	      8.44716      8.32688      8.50475        -0.037027     -0.015658      0.015280
O	      2.16856      2.01345      2.09716        -0.141037      0.060773     -0.007003
O	      4.30317      4.24124      2.15823        -0.061960      0.081581      0.007165
O	      4.25612      2.01351      4.16863         0.002688     -0.074618      0.033301
O	      6.44585      4.19455      4.25599        -0.054349      0.047418     -0.011097
O	      6.36706      2.20562      6.45316         0.019729     -0.088016      0.042234
O	      8.34091      4.16607      6.20832         0.050349      0.026948     -0.006302
O	      2.08356      4.27766      4.38559         0.001549      0.046255      0.053110
O	      4.06142      6.32287      4.15348         0.115380     -0.058521     -0.015714
O	      4.19876      4.19596      6.47480         0.062147      0.011536     -0.129245
O	      6.30252      6.29761      6.38904         0.015637     -0.022520     -0.037490
O	      6.43265      4.12485      8.35271         0.239938     -0.091323      0.084607
O	      8.46400      6.30786      8.57755         0.293244     -0.040737      0.135064
O	      2.11191      6.22671      6.44668        -0.021530     -0.003898      0.013453
O	      4.24592      8.38407      6.51603        -0.020908      0.017164     -0.037824
O	      4.13598      6.29672      8.64828        -0.112575      0.131088      0.125303
O	      6.19072      8.46978      8.44827        -0.186707      0.074279     -0.046112
O	      6.26687      6.31535     10.63188        -0.065568     -0.030263      0.051957
O	      8.42904      8.39322     10.60911         0.013459      0.005790      0.339099
