# total energy = -245.30646794 eV
 
CRYSTAL
PRIMVEC
0.008873 6.291174 6.349833 
6.377777 -0.014664 6.373041 
4.255498 4.213247 -0.013303 
PRIMCOORD
36 1
Li	      2.32696      6.19889      8.46977        -0.043988     -0.049234     -0.066455
Li	      4.22405      6.23506     10.42708         0.015825     -0.053758      0.011971
Li	      6.35681      6.23762      4.38919        -0.082937     -0.028914      0.060190
Li	      6.28839      4.30716      6.31788        -0.032038      0.012580     -0.004870
Li	     10.56770      8.33893     10.58245        -0.033809     -0.036579     -0.006846
Li	      6.47049      8.29123      6.43045        -0.012142     -0.031893      0.077570
Li	      4.33541      6.25110      6.48147        -0.020571      0.040043     -0.024732
Li	      4.24797      4.38774      8.39806         0.033268      0.021811     -0.039710
Li	      6.18692      6.32411      8.41670         0.013658      0.043155     -0.012840
Sc	      0.10514      6.21542      6.28076         0.141099     -0.134882     -0.136381
Ti	      8.37128      4.23981      8.57281        -0.404643      0.009275      0.277054
V	      6.40878      8.43403     10.48718         0.301725     -0.027218     -0.087828
V	      4.31643      4.23030      4.26616        -0.054305      0.011078      0.182957
V	      8.36124      6.32945      6.34143        -0.116382     -0.009601      0.059472
Cr	      8.53638      8.39061     12.67606         0.097472     -0.016644     -0.132814
Cr	      4.27314      8.28078      8.49691        -0.078393      0.131124     -0.303875
Cr	      0.03067      2.09184      2.12991         0.044685      0.085865      0.091734
Ni	      8.54255      6.34167     10.60896         0.015776     -0.002575      0.025868
O	      2.10627      2.22168      2.02187        -0.078929      0.073932     -0.007336
O	      4.16281      4.22088      2.11298        -0.008335      0.057817      0.055410
O	      4.25995      2.16566      4.19329         0.029272     -0.024764      0.083840
O	      6.28798      4.11807      4.25004        -0.019044      0.012415     -0.007981
O	      6.42329      2.05690      6.39541        -0.033177      0.017039      0.033314
O	      8.57382      4.20465      6.50092         0.006766     -0.022243      0.038955
O	      2.21161      4.24003      4.09176         0.015421     -0.026380     -0.280366
O	      4.24804      6.23171      4.08313         0.097321      0.010504     -0.100876
O	      4.25717      4.06481      6.30881         0.010428     -0.008464     -0.047654
O	      6.47900      6.27251      6.35904         0.086533     -0.007692      0.044406
O	      6.50321      4.08632      8.52682         0.371551     -0.011443     -0.041670
O	      8.63876      6.19252      8.44593         0.032977     -0.092024     -0.058238
O	      2.13348      6.40658      6.32585        -0.039367      0.048555      0.074893
O	      4.16473      8.39498      6.45073        -0.038462      0.058737      0.002250
O	      4.23978      6.38246      8.48828        -0.023480     -0.211948      0.016785
O	      6.24045      8.39301      8.54137         0.067116      0.037199      0.155100
O	      6.46076      6.39096     10.64144        -0.171802      0.009989      0.022686
O	      8.49391      8.39840     10.69059        -0.089091      0.115140      0.046016
