# total energy = -234.56163821 eV
 
CRYSTAL
PRIMVEC
0.036622 6.324607 6.386806 
6.181757 0.030178 6.392748 
4.152238 4.251532 -0.010795 
PRIMCOORD
36 1
Li	      8.18144      2.20724      6.37599         0.017664      0.058378     -0.091426
Li	      6.21182      4.27661      2.18802        -0.034353     -0.030632      0.049021
Li	      4.09780      2.10730      2.22099        -0.041138     -0.013060      0.042946
Li	      8.22991      4.29353      8.51854         0.023997      0.033174      0.058300
Li	      2.12349      2.07926      4.22235        -0.029795      0.011239      0.025720
Li	      8.28242      6.33342      6.38288         0.046239     -0.061031     -0.032517
Li	      6.30999      4.24702      6.35246         0.085845      0.014200     -0.137934
Li	      8.24221      6.38848     10.58352        -0.054363      0.029141     -0.019530
Li	      6.26132      6.34578      8.52594         0.045227      0.027536      0.047888
Sc	      4.09670      6.38875      6.41624        -0.072647      0.232464     -0.338470
Ti	      6.24585      8.38795      6.39176        -0.308487     -0.202214     -0.262479
V	     10.24305      4.32843      6.41858        -0.039859     -0.112991     -0.286180
V	      0.10695      2.11010      2.14121         0.010628      0.009389      0.213755
V	      4.17598      4.16545      4.21462         0.083566      0.014561     -0.113272
V	      8.31456      8.47063      8.51822         0.182544      0.046687      0.147470
Co	      6.23362      4.29166     10.61259        -0.043661     -0.258131     -0.169535
Cu	      6.20724      2.15965      4.25652         0.064212     -0.078686      0.006070
Ni	      4.07511      0.07789      4.20198         0.090091     -0.024419      0.064342
O	      1.89534      2.14642      2.14471         0.062990     -0.004738      0.014889
O	      4.12675      4.34551      2.07813         0.020594      0.062846      0.039442
O	      4.19642      2.16838      4.21684        -0.292946      0.034253      0.024516
O	      6.17217      4.18617      4.27629        -0.074396      0.219782      0.012006
O	      6.21895      1.98966      6.55685        -0.035016      0.079998      0.191182
O	      8.43515      4.24904      6.35613        -0.046343      0.031664      0.126344
O	      2.14058      4.22583      4.37334         0.037410     -0.002554      0.154684
O	      4.15876      6.28128      4.22191        -0.000334     -0.308351      0.000749
O	      4.07864      4.28285      6.36273        -0.056090     -0.054365      0.006634
O	      6.17244      6.49470      6.36761         0.010405      0.170435      0.042748
O	      6.17667      4.18832      8.52536        -0.238208      0.047805      0.509295
O	      8.45358      6.47344      8.52989        -0.053032      0.232066     -0.074521
O	      1.98056      6.22346      6.38230         0.030977     -0.103258      0.069453
O	      4.22498      8.50803      6.37321         0.129905      0.014255     -0.192312
O	      4.14892      6.28046      8.47220         0.046309     -0.204676     -0.101502
O	      6.31454      8.45074      8.30917         0.286375     -0.029960     -0.087401
O	      6.19790      6.41372     10.79717         0.068830      0.127093      0.078018
O	      8.26903      8.55882     10.57106         0.076861     -0.007899     -0.018394
