# total energy = -234.59550966 eV
 
CRYSTAL
PRIMVEC
0.016271 6.267375 6.264623 
6.349633 -0.002181 6.283444 
4.235574 4.193452 -0.003996 
PRIMCOORD
36 1
Li	      6.28423      6.31260     12.41727         0.019307      0.022397      0.036733
Li	      4.47552      6.36541     10.47807         0.003150      0.090259      0.032414
Li	      6.28961      8.20230     10.50055        -0.039419      0.093205      0.022446
Li	     10.54034      6.27579      8.37205         0.012930     -0.024965     -0.018527
Li	      8.45954      4.24189      8.38351        -0.006119     -0.006048     -0.003554
Li	      2.10093      2.17680      4.16726        -0.064509      0.003713      0.017724
Li	      8.51588      6.22244      6.29432         0.005511      0.048079      0.017130
Li	      6.42248      4.28603     10.39846         0.063940     -0.000577     -0.031494
Li	      4.23855      6.30243      6.21646         0.006096     -0.025331     -0.058906
Sc	      6.38655      4.24711      6.25266        -0.080277     -0.002862     -0.031752
Ti	      2.15906      0.07892      2.14289        -0.067732      0.165002      0.118915
V	      8.46942      8.39882     12.41656         0.057215      0.068842      0.034624
V	      4.18097      4.18804      4.14298        -0.091003     -0.037445      0.009568
V	      6.25489      8.32301      6.26485         0.047617     -0.012023     -0.123889
V	      8.52015      8.29968      8.43208         0.111173     -0.050300     -0.066249
Co	      4.21505      2.09628      2.11483        -0.059434      0.024067      0.035659
Ni	      2.06476      6.20829      4.17159         0.133175     -0.075592      0.002785
Ni	      6.36428      6.27668      8.44292        -0.034087      0.007617     -0.082804
O	      2.08921      1.98566      1.92716         0.066399     -0.291565     -0.162155
O	      4.36939      4.11719      2.16202         0.098331      0.065629     -0.004630
O	      4.23809      2.27283      4.10597         0.021182     -0.075211      0.015613
O	      6.25416      4.25802      4.09507         0.015511     -0.015316     -0.184628
O	      6.54156      2.15096      6.26493        -0.044686      0.021405     -0.100169
O	      8.44137      4.07467      6.26167         0.044284     -0.125778     -0.019374
O	      2.17911      4.14679      4.20781         0.020107     -0.079509     -0.079523
O	      4.17905      6.02317      4.17314         0.046017      0.015376      0.004524
O	      4.17715      4.13830      6.24383        -0.094750      0.035439      0.085509
O	      6.32878      6.34394      6.33540        -0.009512     -0.072106     -0.058009
O	      6.25234      4.21422      8.33617        -0.059507     -0.094461     -0.048481
O	      8.44700      6.35085      8.39056         0.094030      0.084349     -0.090887
O	      2.11791      6.23857      6.36422         0.049106      0.111583      0.150482
O	      4.24127      8.33659      6.37306         0.039053      0.055785      0.051276
O	      4.14122      6.22877      8.44216        -0.161229     -0.081844      0.007799
O	      6.47715      8.47011      8.33232         0.005044      0.054576      0.253816
O	      6.40781      6.28614     10.42135        -0.051721     -0.020988      0.105639
O	      8.59959      8.28263     10.58066        -0.095190      0.124601      0.162375
