# total energy = -237.66855284 eV
 
CRYSTAL
PRIMVEC
-0.015806 6.409323 6.273897 
6.430680 -0.044080 6.301027 
4.251666 4.256664 0.006175 
PRIMCOORD
36 1
Li	      6.19033      0.16961      6.25737        -0.002694     -0.055635      0.043975
Li	      8.34411      2.33978      6.29222         0.063034     -0.009805      0.067256
Li	      8.52204      4.25728      4.44034        -0.010241      0.004968     -0.095081
Li	      6.44852      2.02327      4.44871        -0.009479      0.006576     -0.035899
Li	      8.59477      4.23609      8.15121         0.011890      0.019626      0.015519
Li	      6.41878      6.35518      4.22561         0.014608     -0.037692      0.005201
Li	      4.22801      4.27380      4.18392         0.015668     -0.001566      0.040028
Li	      8.69187      6.11513      6.25210        -0.035260      0.060153     -0.010820
Li	      6.64540      4.07345      6.24094        -0.097125      0.054189     -0.025641
Sc	      6.42732      4.31014     10.55116        -0.019116      0.011830      0.171784
Ti	      8.56732      8.33322      8.39686         0.314185     -0.255728     -0.419473
V	      6.36947      4.27949      2.24501        -0.147290      0.148117      0.322489
V	      4.20966      2.16810      2.23769        -0.074594      0.041701     -0.146553
V	      2.16492      4.24321      6.25583        -0.266768     -0.104854     -0.267188
V	      4.27127      6.35292      6.25884         0.162825      0.443995     -0.277986
Co	      6.46313      2.03396      8.26727        -0.041200      0.002529     -0.037995
Co	      6.40293      6.35981      8.38720        -0.097424     -0.096995     -0.025741
Co	      8.54153      6.36812     10.49954        -0.141750     -0.004756      0.145947
O	      8.53944      4.22634      6.28894         0.002647     -0.009455     -0.030172
O	      2.25608      1.99784      2.10257        -0.078408     -0.107613     -0.016937
O	      4.38926      4.12477      2.08672         0.122819      0.127905     -0.009403
O	      4.28785      2.10178      3.97617         0.016042      0.012114     -0.082706
O	      6.39732      4.23750      4.00440         0.009972     -0.018817     -0.294076
O	      6.42149      2.10100      6.35449         0.035536     -0.026924      0.507746
O	      2.09288      4.35683      4.25063        -0.001662     -0.419432      0.175808
O	      4.15945      6.43004      4.16893         0.421701      0.075549      0.205319
O	      4.19752      4.34935      6.38960         0.169280     -0.399959      0.459417
O	      6.26755      6.50377      6.31825        -0.084690     -0.011464      0.086986
O	      6.22032      4.24350      8.41503        -0.084859      0.106749      0.033592
O	      8.50153      6.48551      8.30082        -0.002150      0.132398      0.154964
O	      2.24562      6.28326      6.46439         0.083940     -0.128455     -0.048112
O	      4.32867      8.42650      6.38863        -0.093048      0.207267     -0.023285
O	      4.19590      6.42558      8.34722         0.011431     -0.001118     -0.260773
O	      6.38550      8.58427      8.34496         0.063782     -0.045107     -0.051235
O	      6.52654      6.34581     10.41401        -0.307245     -0.023297     -0.000320
O	      8.54870      8.44623     10.33668         0.075643      0.303007     -0.276636
