# total energy = -138.77739675 eV
 
CRYSTAL
PRIMVEC
-4.047698 0.000097 -0.000006 
-2.023729 -4.284639 -6.112783 
2.023973 -4.284391 6.112492 
PRIMCOORD
24 1
Li	     -1.01033     -5.33226      3.04763         0.001081      0.011199      0.013182
Li	     -1.01009     -5.50743     -1.01671         0.000512     -0.066100      0.001365
Li	     -3.03422     -1.04798      1.03162        -0.001013      0.010693     -0.015554
Li	     -1.01026     -3.14846      1.03765         0.002204      0.007401      0.005480
Li	     -5.05763     -3.14823     -3.07139        -0.003155      0.008291     -0.007781
Li	     -3.03372     -7.59740     -1.01656        -0.000692     -0.002230      0.000301
Mn	     -3.03410     -5.34973      1.03443        -0.000724     -0.153162      0.126964
Mn	     -3.03402     -5.34989     -3.06832         0.000585     -0.153426     -0.123679
Mn	     -3.03408     -3.22099     -1.01683         0.001172      0.090741     -0.000194
Ni	     -1.01017     -1.06571     -1.01667        -0.000536      0.130135      0.000092
Ni	     -1.01004     -7.49755      1.00637        -0.001109     -0.080874     -0.065322
Ni	      1.01376     -3.21305      3.07284        -0.000882     -0.081251      0.063871
O	     -3.03379     -3.39421     -2.97257         0.002388     -0.011464      0.192667
O	     -1.01013     -7.69920     -1.01699        -0.000805      0.321340      0.001431
O	     -3.03424     -3.39439      0.93899        -0.002128     -0.009272     -0.192580
O	     -1.01032     -5.45619      1.00264         0.001979      0.253943      0.013685
O	     -1.01006     -5.45626     -3.03621        -0.002085      0.254102     -0.013412
O	     -3.03401     -1.27880     -1.01679        -0.001728     -0.293299      0.000784
O	     -1.01021     -2.98237      3.06000        -0.000173      0.191307     -0.019820
O	     -1.01027     -3.04317     -1.01692         0.001115     -0.310535      0.000584
O	     -3.03397     -7.26670      1.01890        -0.000124      0.187675      0.020203
O	     -1.01050     -0.95888      1.13245         0.004751     -0.184834      0.266836
O	     -3.03442     -5.24327      2.94645        -0.000108     -0.185217     -0.267396
O	     -3.03393     -5.17643     -1.01676        -0.000525      0.064838     -0.001706
