# total energy = -232.61092578 eV
 
CRYSTAL
PRIMVEC
0.032339 6.254709 6.196881 
6.450168 0.033776 6.195707 
4.330206 4.199706 -0.008215 
PRIMCOORD
36 1
Li	      4.34922     10.43094      6.19147        -0.018466     -0.023429     -0.005559
Li	      6.45876      4.23718      2.06274        -0.018113     -0.013651     -0.022916
Li	      4.37231      6.23626     10.29220         0.013452      0.013882     -0.007415
Li	      0.03306      2.14414      2.13926        -0.008544      0.036431      0.040059
Li	      8.55338      4.18722      8.27460        -0.052068     -0.014282     -0.012305
Li	      6.45450      4.22458     10.19073        -0.000177     -0.003290      0.041030
Li	      2.15917      4.20220      6.20202        -0.013802      0.013078      0.032973
Li	      4.45330      4.22416      8.31271         0.082167      0.029273      0.003596
Li	      6.45082      6.21189      8.34073        -0.037126      0.010730      0.028494
Sc	      6.50235      4.20916      6.31341        -0.009400      0.063145     -0.006343
Ti	      8.60452      6.19033     10.21033        -0.017286     -0.225623      0.042685
V	      4.23531      2.16301      2.04909         0.051313     -0.047955     -0.040776
V	      6.57887      8.37260     10.20943        -0.032772     -0.026299     -0.092415
V	      8.63244      6.28535      6.25409        -0.029332     -0.039709     -0.001990
V	      4.29528      6.30444      6.21939         0.055325      0.049435     -0.029434
Cu	      2.09841      2.13110      4.06640        -0.029016      0.033588     -0.001226
Ni	      8.61731      2.16499      6.20061        -0.030191     -0.009289      0.008216
Ni	      4.33016      4.19321      4.11650        -0.036276      0.013753     -0.019233
O	      2.28953      2.08984      2.11927         0.011138      0.001974     -0.056630
O	      4.35771      3.98107      2.08625        -0.012731      0.026690     -0.112923
O	      4.47042      2.10045      4.16592         0.167553     -0.105904      0.053154
O	      6.42217      4.12946      4.11928         0.089704     -0.092932      0.011076
O	      6.44314      2.10767      6.07005        -0.074125      0.027779     -0.013914
O	      8.59838      4.29200      6.18116        -0.044607      0.099923      0.012217
O	      2.20937      4.26269      4.11776        -0.062022      0.270647     -0.014586
O	      4.19801      6.25660      4.17614        -0.222737      0.115659     -0.006995
O	      4.32909      4.15700      6.20400         0.029848     -0.068140      0.112479
O	      6.45099      6.31650      6.05544         0.090684     -0.017914      0.160771
O	      6.45511      4.20575      8.25895         0.038541     -0.008824     -0.105418
O	      8.65388      6.30324      8.28059         0.008980     -0.018489      0.043950
O	      2.30788      6.31831      6.08999        -0.085027     -0.084765     -0.043546
O	      4.26549      8.35461      6.28472         0.070692      0.021183      0.028413
O	      4.37446      6.45621      8.20291         0.012970      0.011506      0.059015
O	      6.38756      8.37121      8.40351        -0.032813     -0.030742      0.025195
O	      6.67358      6.37749     10.33544         0.133586      0.011367     -0.001972
O	      8.51775      8.32880     10.32969         0.010678     -0.018805     -0.107727
