# total energy = -231.78531613 eV
 
CRYSTAL
PRIMVEC
0.028431 6.230842 6.367094 
6.306894 0.036006 6.358874 
4.227227 4.170516 0.001775 
PRIMCOORD
36 1
Li	      8.38987      4.14392      4.30448        -0.007980     -0.029685      0.008465
Li	      6.34211      2.15349      4.31263         0.030299      0.018048     -0.023637
Li	     10.45800      6.34566      8.48228        -0.059286     -0.066806     -0.026587
Li	      6.30978      6.23053      4.33338         0.010650      0.009704     -0.004701
Li	      6.32324      4.17554      6.19986         0.007631     -0.003239     -0.064862
Li	      2.12593      6.25186      4.35208        -0.023196      0.037319      0.059889
Li	      2.11974      4.16464      6.27741         0.014685     -0.035090     -0.012951
Li	      4.24823      6.27523      6.29726         0.007136      0.058016      0.036694
Li	      6.37965      6.21908      8.49548         0.016647     -0.031419     -0.009028
Sc	      6.28031      4.26000      2.20481        -0.039864      0.030144      0.106596
Ti	      4.35997      8.23948      8.57887         0.077374     -0.028107      0.139229
V	      2.10998      4.16774      2.17554         0.219724      0.001401     -0.137576
V	      4.24341      8.31113      4.23615        -0.145551     -0.014647      0.183337
V	      8.38489      6.26574      6.31298         0.229022     -0.050343     -0.014904
V	      4.23676      4.16713      8.46825        -0.069785     -0.004056      0.047098
Cu	      6.34394      6.27925     12.65103         0.025973      0.044861      0.011263
Cu	      8.33345      2.13405      6.26293         0.020317      0.068379      0.032830
Ni	      4.23956      4.29207      4.34375        -0.058995      0.031584     -0.013117
O	      2.27763      2.16283      2.12701         0.063254     -0.123927      0.087300
O	      4.19771      4.08047      2.28342         0.081696     -0.021294      0.056171
O	      4.25950      2.09093      4.15546         0.004622     -0.034109     -0.112263
O	      6.27452      4.21433      4.20817         0.123740     -0.020181     -0.028558
O	      6.11979      2.03465      6.30857        -0.030998      0.031651     -0.006074
O	      8.48589      4.16420      6.45248        -0.164067     -0.020652     -0.190032
O	      2.08505      4.19532      4.13533        -0.105060     -0.003479      0.196804
O	      4.24945      6.41271      4.31972         0.003853     -0.060593      0.017690
O	      4.23123      4.09751      6.44390         0.003685      0.062890     -0.050335
O	      6.61645      6.22894      6.30404        -0.313967     -0.005132      0.002573
O	      6.28085      4.14101      8.58381         0.086275     -0.007318     -0.019911
O	      8.44122      6.24266      8.31241        -0.038973      0.074393      0.020852
O	      2.01658      6.39872      6.40981         0.047471     -0.043109     -0.115358
O	      4.30317      8.37094      6.46314         0.143993     -0.075817      0.094478
O	      4.22031      6.32225      8.45751        -0.001894      0.072766     -0.063487
O	      6.32420      8.35266      8.48182        -0.121299      0.048012     -0.013605
O	      6.31372      5.98715     10.53188         0.027570      0.102431     -0.066656
O	      8.51224      8.32367     10.46730        -0.064704     -0.012594     -0.127627
