# total energy = -238.10186557 eV
 
CRYSTAL
PRIMVEC
0.023480 6.285869 6.355303 
6.347071 0.015978 6.362905 
4.233546 4.197981 0.008478 
PRIMCOORD
36 1
Li	      8.40750      2.18517      6.37602        -0.002649      0.062960     -0.016412
Li	      4.29497      8.39270      8.45047         0.028033      0.063718      0.008192
Li	      8.54297     10.44666     10.63868        -0.000318      0.015908      0.090496
Li	      6.40573      2.23500      8.34860        -0.008873     -0.080691     -0.023319
Li	      8.27415      4.14925      8.46037        -0.056428      0.028464     -0.026361
Li	      6.36581      4.14949      6.50223         0.014728      0.032213     -0.045244
Li	      6.31495      4.29222     10.45925        -0.005837      0.023488      0.048072
Li	      6.40203      8.39137      6.48140        -0.019004      0.025969      0.018854
Li	      6.37471      6.25324      8.54816        -0.031223     -0.024422     -0.017977
Sc	      4.24782      4.15060      4.18605         0.012391     -0.038304     -0.025176
Ti	      4.28362      6.52789      6.40072         0.004313      0.509792     -0.006499
V	      2.14575      6.32456      8.43863        -0.250506     -0.082484     -0.068584
V	      2.09700      2.14563      4.18254         0.061358     -0.038961      0.066916
V	      8.50019      6.18395      6.44148        -0.004610     -0.296681     -0.081325
V	      8.40908      6.28772     10.58104         0.002521     -0.051043      0.019364
Fe	      4.36434      4.18422      8.49309        -0.191958      0.006807     -0.005221
Co	      4.20979      4.15679      0.04639        -0.014068     -0.040820      0.013625
Ni	      6.41085      8.37472     10.59928        -0.078427      0.049520      0.029833
O	      2.14989      2.03851      2.20768        -0.010288      0.019183     -0.034768
O	      4.36304      4.16128      2.11191         0.036738      0.042634     -0.327401
O	      4.20182      2.09066      4.38600        -0.023214      0.027404     -0.031353
O	      6.34278      4.28229      4.18650        -0.022219      0.053680     -0.009363
O	      6.20910      2.07049      6.31439         0.121115     -0.267292      0.119795
O	      8.40860      4.37527      6.40742        -0.098576      0.076589      0.006769
O	      2.15549      4.19590      4.17754         0.020198      0.001660      0.004730
O	      4.19479      6.25065      4.38211        -0.004114     -0.008128      0.084047
O	      4.22161      4.03769      6.36356         0.020988      0.012318     -0.032730
O	      6.27358      6.31120      6.24935        -0.054642      0.005529     -0.005549
O	      6.24989      4.21607      8.48174         0.121589      0.001108     -0.014356
O	      8.44674      6.35405      8.42313        -0.014500     -0.072868      0.023782
O	      2.28570      6.28362      6.32789         0.281336      0.031457     -0.001593
O	      4.27503      8.33336      6.39592         0.007079     -0.097942      0.004369
O	      4.23779      6.26802      8.32133        -0.001210      0.032894     -0.127986
O	      6.49061      8.51483      8.55074         0.026396      0.015050     -0.121236
O	      6.45014      6.30065     10.69032         0.014573     -0.035561      0.433206
O	      8.46677      8.29999     10.54528         0.119306     -0.003150      0.050405
