# total energy = -239.54515651 eV
 
CRYSTAL
PRIMVEC
-0.001769 6.399476 6.258979 
6.309751 -0.011750 6.269000 
4.191181 4.257646 0.007463 
PRIMCOORD
36 1
Li	      2.10521      8.50129      6.25154         0.049929      0.005972      0.002048
Li	      6.28563      2.15124      4.24994        -0.021703     -0.088351      0.030511
Li	      6.31911      6.41005      4.34005        -0.054042      0.010921     -0.112938
Li	      4.22037      4.20574      4.33414         0.019736      0.023210     -0.037379
Li	      8.21614      6.48894      6.23147        -0.023310     -0.033545     -0.048681
Li	      6.22011      4.40313      6.18750        -0.014633      0.103296     -0.035848
Li	      4.22984      8.51165      4.23854        -0.005339      0.022439      0.033092
Li	      2.15669      4.09627      6.14631        -0.030380      0.010054     -0.080815
Li	      6.35171      6.37971      8.19077         0.013773     -0.027909      0.055136
Sc	      8.40535      4.21970      4.31097         0.459220      0.034432      0.236439
Ti	      4.32735      8.50047      8.34511         0.115855      0.183196      0.203174
V	      2.09387      0.05768      2.12832        -0.442069      0.193255     -0.175072
V	      6.29833      2.16983      8.32209         0.122980     -0.155217      0.672008
V	      8.33515      4.26928      8.37258         0.171347     -0.173815     -0.041639
V	      4.19766      4.26899      8.27628         0.195491     -0.179547     -0.097583
Fe	      2.04667      6.38850      4.26592        -0.225471      0.055954     -0.056957
Co	      4.32377      6.36514      6.14981        -0.276141      0.003201      0.163293
Co	      0.00721      6.36596      6.22716        -0.083581     -0.222778      0.211417
O	      2.08231      2.10390      2.11998         0.186819      0.081010     -0.010753
O	      4.13929      4.18707      2.10665         0.096021     -0.177102      0.196974
O	      4.22645      2.06306      4.00909        -0.016705     -0.012442     -0.214678
O	      6.34729      4.21763      4.07298        -0.095312     -0.017220      0.088653
O	      6.32354      2.02706      6.54069        -0.027440     -0.097001     -0.540281
O	      8.42329      4.22303      6.34943         0.071846     -0.053619      0.055491
O	      2.05890      4.39885      4.05125         0.006129     -0.100842      0.076540
O	      4.12069      6.36502      3.97860         0.009314      0.016566     -0.167845
O	      4.19045      4.29618      6.35282         0.144983      0.288127      0.064618
O	      6.26396      6.39593      6.25768        -0.308212     -0.082098     -0.010446
O	      6.29768      4.11880      8.32725        -0.143278      0.210015     -0.032284
O	      8.46881      6.39939      8.40326        -0.158639      0.089639     -0.082440
O	      2.12120      6.44221      6.28300         0.180906     -0.038381      0.083080
O	      4.17472      8.50381      6.43758         0.086297     -0.016430     -0.095587
O	      4.18636      6.47117      8.38748         0.043979      0.066840      0.001011
O	      6.27611      8.65558      8.33210        -0.108272      0.027145     -0.005114
O	      6.33806      6.39878     10.45000         0.074765      0.012354     -0.289650
O	      8.40034      8.47857     10.33685        -0.014865      0.038669     -0.037495
