# total energy = -235.35315778 eV
 
CRYSTAL
PRIMVEC
-0.001107 6.233944 6.431010 
6.291147 0.001725 6.427125 
4.207475 4.167519 -0.012044 
PRIMCOORD
36 1
Li	      4.23380     10.36073      6.45615         0.003880     -0.014778      0.081842
Li	      6.36949     10.36319      8.60481        -0.023100      0.025963      0.045632
Li	      4.19911      2.09631      2.21880         0.001472      0.038838      0.026211
Li	      4.13210      0.04499      4.23503        -0.021333     -0.063353      0.016761
Li	      2.14915      4.10117      2.22811        -0.060243      0.036307     -0.012934
Li	      2.16877      2.13480      4.20512        -0.013750     -0.001858     -0.083352
Li	      4.05887      4.15378      4.29848        -0.002808      0.021485     -0.040156
Li	      2.15909      6.15246      4.34476         0.005811      0.016375      0.018138
Li	      2.15125      4.23951      6.36213         0.015404      0.018074     -0.030802
Sc	      0.12577      4.18969      4.29673        -0.055923     -0.127440     -0.102340
Ti	      2.18114      8.22037      6.48823         0.210673     -0.193384     -0.121812
V	      6.28171      8.31658     10.67953         0.054041      0.315642      0.145683
V	      4.21006      6.07939      2.19482        -0.037850      0.287549      0.137085
V	      6.25889      6.26654      8.56731        -0.338534      0.296911     -0.161512
V	      4.17597      2.07067      6.34920        -0.049478      0.001305      0.133565
Fe	      6.28880      4.21689      6.27415         0.032973     -0.126132      0.093149
Cu	      8.33743      8.36393      8.55249        -0.168793      0.144482      0.064716
Ni	      4.18677      6.18695      6.40851         0.012632      0.046004     -0.182842
O	      1.96087      2.11100      2.02941        -0.028570     -0.116619     -0.128077
O	      4.15505      4.34705      2.10742         0.058750     -0.214724      0.011565
O	      4.29219      2.04924      4.36707         0.042239     -0.000103     -0.017493
O	      6.33479      4.07856      4.33549        -0.016457     -0.095100     -0.042379
O	      6.31622      2.11893      6.49557         0.039854      0.011813     -0.010303
O	      8.30312      4.19358      6.47542         0.010358     -0.047257     -0.095721
O	      2.05805      4.17115      4.30386        -0.088854     -0.016739     -0.001172
O	      4.18832      6.27792      4.13535        -0.000474      0.005433     -0.001231
O	      4.28231      4.11245      6.31833         0.014858     -0.053951     -0.035508
O	      6.28994      6.20450      6.48006         0.042724     -0.045693      0.048691
O	      6.21839      4.10469      8.56759         0.449539     -0.003904     -0.084624
O	      8.40851      6.31628      8.42888        -0.056374     -0.536312     -0.092187
O	      2.12728      6.34392      6.46898        -0.042050      0.386092      0.041675
O	      4.08574      8.32564      6.42696        -0.275809      0.013875      0.019161
O	      4.29464      6.17073      8.48414         0.542907      0.408781      0.105556
O	      6.34692      8.28184      8.63544        -0.310387     -0.414283      0.097527
O	      6.30920      6.29031     10.60307         0.068786      0.040818     -0.165855
O	      8.33728      8.34663     10.95790        -0.016114     -0.044116      0.323341
