# total energy = -234.73367343 eV
 
CRYSTAL
PRIMVEC
-0.012311 6.381139 6.315449 
6.187537 -0.002802 6.305501 
4.132322 4.254782 -0.009106 
PRIMCOORD
36 1
Li	      4.15157      2.07300      2.30597         0.000280      0.007480     -0.035324
Li	      4.11724      0.26125      4.22385         0.010012     -0.006412     -0.000090
Li	      5.99342      2.14380      4.20773         0.103612      0.012192     -0.004941
Li	      6.18056      2.11960      8.36165        -0.015950      0.002216     -0.023710
Li	      2.24421      2.10273      4.20807        -0.066684      0.016021     -0.037901
Li	      4.14976      4.01022      4.21998        -0.032082      0.035816     -0.002452
Li	      4.13910      2.12788      6.08716         0.014400      0.008197      0.002038
Li	      4.15098      6.33060      6.36317        -0.006433     -0.005900      0.007646
Li	      8.23350      8.49668      8.38278        -0.004534     -0.011689      0.019664
Sc	      2.15024      4.20405      2.06393         0.065370     -0.031075     -0.132490
Ti	      4.04100      8.40597      4.24903        -0.174238     -0.204748      0.210363
V	      2.09614      6.39677      8.43412        -0.055311     -0.029315     -0.004287
V	      6.11250      4.25037      6.08884         0.104366      0.067494     -0.153438
V	      2.08350      6.38353      4.23805        -0.051553     -0.006177      0.120022
V	      2.18216      4.15335      6.30707        -0.100059      0.043057      0.033916
Fe	      6.05662      6.43826      8.44247         0.060436      0.012037      0.100151
Cu	      6.13434      0.10269      6.26592        -0.050182      0.017828      0.003114
Cu	      8.24131      2.14851      6.32405         0.089585     -0.019964      0.015453
O	      4.11561      2.15345      4.18434        -0.018706      0.003510     -0.026757
O	      2.08265      2.03157      1.98481         0.001575      0.050740      0.107923
O	      4.22391      4.29048      1.93841        -0.014284      0.020545      0.103967
O	      6.15801      4.30813      4.29185        -0.001387      0.017892      0.026378
O	      6.22463      2.37851      6.31978        -0.094924      0.147990      0.047625
O	      8.09986      4.36940      6.34762        -0.082023      0.171063      0.021644
O	      2.00180      4.26512      4.20044         0.000577     -0.038267      0.026267
O	      4.06633      6.52460      4.13752         0.050654      0.188589      0.006095
O	      4.16041      4.24043      6.29429        -0.017177      0.025008      0.025574
O	      6.14316      6.34715      6.43911        -0.004710     -0.009510     -0.007943
O	      6.18266      4.35410      8.48276        -0.021545     -0.059686      0.084363
O	      8.13303      6.32458      8.57880         0.061634      0.029894     -0.049711
O	      2.10509      6.17155      6.28893         0.108992     -0.181990      0.018109
O	      4.24950      8.48149      6.14718         0.067511     -0.181320     -0.192779
O	      4.07959      6.35751      8.46188        -0.057736     -0.000395     -0.009274
O	      6.20221      8.50966      8.34364         0.016995     -0.010053     -0.071181
O	      6.21954      6.29591     10.55009        -0.042026     -0.063851     -0.092339
O	      8.32353      8.44398     10.63979         0.155545     -0.017218     -0.135694
