# total energy = -236.16334485 eV
 
CRYSTAL
PRIMVEC
0.003739 6.388558 6.310089 
6.224403 0.007040 6.306853 
4.153399 4.260698 0.000757 
PRIMCOORD
36 1
Li	      2.18139      8.41215      6.25432         0.013998      0.004060     -0.045078
Li	      2.11583      0.08529      2.06957         0.046732      0.021181     -0.028908
Li	      4.08805      2.10770      2.13410         0.004025     -0.007682     -0.034109
Li	      8.26638     10.61626     10.50612         0.027695     -0.023743     -0.008489
Li	      2.07624      4.25657      2.22206         0.036326      0.044336      0.013094
Li	      4.12425      4.22672      4.16178         0.033326      0.007459     -0.007246
Li	      4.10352      8.46728      4.23432        -0.049996      0.025826      0.004473
Li	      4.04552      6.49543      6.28133         0.066436      0.042589      0.011458
Li	      8.31489      8.50587      8.47993        -0.001517     -0.004789     -0.002506
Sc	      4.14586     10.57322      6.28807        -0.047097     -0.040258      0.079052
Ti	      4.27460      6.35413      2.20395         0.133472     -0.131614      0.150694
V	      8.30631      6.38427      6.30637        -0.047988     -0.019505      0.043241
V	      6.21516      4.25946      6.28267         0.010282      0.041109      0.016253
V	      6.09053      6.35604      8.44939         0.010131      0.016833     -0.019209
V	      2.07847      4.28379      6.27404         0.050054     -0.033490      0.162455
Fe	      6.30001      8.62834     10.38235        -0.140551     -0.040196      0.065986
Ni	      2.12927      2.16454      4.17521        -0.021559     -0.078653      0.129102
Ni	      2.10320      6.40224      4.19732        -0.000689     -0.027397     -0.010360
O	      1.97550      2.15814      2.13969        -0.113977     -0.000446     -0.133827
O	      4.14455      4.47187      2.04358         0.067750      0.218140      0.088430
O	      4.21274      2.13634      4.30243         0.119628      0.012672     -0.087764
O	      6.23543      4.24260      4.27497        -0.056935      0.011195     -0.055426
O	      6.21823      2.16159      6.34899         0.069514     -0.028027      0.011146
O	      8.23960      4.37071      6.30413         0.029552     -0.046989     -0.019555
O	      2.09573      4.24447      4.32570        -0.021901      0.062696     -0.091436
O	      4.15984      6.43731      4.07113         0.078368     -0.035025     -0.239682
O	      4.16222      4.12956      6.34068        -0.019940      0.088797     -0.014461
O	      6.22845      6.37310      6.37619        -0.081539      0.031266     -0.014011
O	      6.22297      4.29153      8.31451         0.019380     -0.103721      0.072101
O	      8.24880      6.38116      8.37131         0.015668     -0.026667     -0.053137
O	      2.07359      6.34131      6.27953        -0.022694      0.021561      0.122906
O	      4.22407      8.57073      6.35539        -0.029425     -0.048313     -0.048969
O	      4.34477      6.36103      8.41800        -0.141024      0.013447     -0.018132
O	      6.23379      8.37365      8.39384        -0.053010     -0.001037     -0.078415
O	      6.25075      6.46626     10.42992        -0.131504     -0.035126      0.019653
O	      8.19789      8.48117     10.51638         0.149013      0.069510      0.020680
