# total energy = -241.87969690 eV
 
CRYSTAL
PRIMVEC
0.007016 6.368219 6.331098 
6.272301 0.022409 6.315257 
4.196156 4.249739 0.000184 
PRIMCOORD
36 1
Li	      4.26171     10.53244      6.37856         0.018075      0.041647      0.048607
Li	      6.29980     10.57986      8.40659        -0.006783     -0.020594      0.004908
Li	      4.24075      8.49511      8.32188         0.020580      0.031903      0.024280
Li	      4.18224      6.36407     10.43598        -0.006546     -0.012218     -0.107855
Li	      4.21008      6.34184      2.12085        -0.009719     -0.045648     -0.011305
Li	      0.10285      4.35652      4.26342        -0.007717      0.109258     -0.004671
Li	      2.04556      6.27384      4.27255        -0.035626      0.014859      0.028660
Li	      6.15770      8.58756      6.36762         0.036017      0.007143      0.025807
Li	      6.26879      6.37463      8.49310         0.002939     -0.006310      0.027144
Sc	      4.27095      4.27996      8.46710        -0.014438     -0.057828      0.052847
Ti	      6.27938      8.32316     10.48039         0.094162     -0.419420     -0.234579
V	      2.07519      2.14749      4.11679         0.143061      0.173650      0.055616
V	      4.15627      4.29319      4.13506        -0.087659     -0.088474     -0.031646
V	      8.36759      6.33729      6.38645         0.040283      0.080952      0.075157
V	      4.16127      6.42343      6.35972         0.052814      0.036329     -0.016018
Fe	      2.17742      8.50733      6.36658        -0.176723     -0.046898      0.066528
Fe	      6.34819      4.24581      6.32620        -0.129420      0.072432      0.068856
Co	      8.36169      4.28664      8.44522         0.106150     -0.048682     -0.007314
O	      2.07927      2.27808      2.12245        -0.061484      0.106758     -0.215539
O	      4.04140      4.25945      2.22746        -0.084141      0.014223     -0.041270
O	      4.18858      2.20750      4.30294         0.180580     -0.126027     -0.029095
O	      6.25208      4.26765      4.23258         0.047126      0.145306     -0.121944
O	      6.23140      2.12108      6.19797         0.026092     -0.031205     -0.048263
O	      8.43889      4.23185      6.47974         0.036836      0.052220      0.048129
O	      2.09401      4.22913      4.06793        -0.035433     -0.193584     -0.012077
O	      4.28887      6.27916      4.30256        -0.120638     -0.037923      0.011390
O	      4.13616      4.23429      6.31118        -0.024482      0.010392     -0.000599
O	      6.32711      6.42655      6.17692        -0.000297     -0.006203      0.104154
O	      6.33240      4.25262      8.40190         0.094325     -0.001141      0.055150
O	      8.38492      6.30541      8.33717        -0.029089     -0.041706     -0.010997
O	      2.18469      6.50537      6.34869        -0.061974     -0.025928      0.010977
O	      4.12039      8.47285      6.31173         0.164385     -0.057890     -0.027278
O	      4.25008      6.31698      8.33137         0.002564     -0.026192     -0.024125
O	      6.33390      8.51946      8.59165        -0.019719     -0.037816      0.245046
O	      6.24299      6.51400     10.53134        -0.021602      0.433016      0.020713
O	      8.23845      8.53973     10.58096        -0.132498      0.001597     -0.029396
