# total energy = -238.62813812 eV
 
CRYSTAL
PRIMVEC
-0.008348 6.393684 6.296588 
6.366508 0.001335 6.286732 
4.239484 4.251155 0.005801 
PRIMCOORD
36 1
Li	      6.21639      4.18638      2.12279         0.001218     -0.006113     -0.035638
Li	      4.30877      2.28766      2.09501         0.024629      0.020418      0.038097
Li	      4.18930      6.23223      2.25009        -0.026148      0.017306      0.026656
Li	      2.25840      4.30548      2.17451        -0.003568      0.011763      0.005946
Li	      4.23739      4.30513      3.99896        -0.019419     -0.001283      0.030661
Li	      0.02533      4.23975      4.16202        -0.016200     -0.046110     -0.061600
Li	      2.13000      6.35259      4.15770         0.045049      0.026172      0.029032
Li	      6.27625      8.62200      6.37276         0.021708      0.025765      0.041933
Li	      6.40369      6.43055      8.47885         0.020276     -0.006925      0.018169
Sc	      2.17180      8.43570      6.42743         0.059139     -0.079205      0.015252
Ti	      6.29524      4.27097      6.42601        -0.141839      0.049042      0.392664
V	      4.23044      6.39047     10.35224         0.140321     -0.057111     -0.070463
V	      2.06826      2.28330      4.07169         0.017767      0.112702      0.046695
V	      8.45448      6.41171      6.36277        -0.040969      0.125320     -0.008260
V	      4.24373      6.37884      6.32418        -0.067647     -0.098891     -0.088762
Fe	      4.29508     10.58252      6.39728        -0.053649     -0.055134     -0.161148
Fe	      6.36270      8.49687     10.35627        -0.051010      0.047355      0.145534
Cu	      8.45359      8.46091      8.42383         0.016946      0.031143     -0.112205
O	      2.07849      2.11832      2.18647         0.017191     -0.024650     -0.125574
O	      4.21895      4.26835      2.01060        -0.018110      0.005935      0.244747
O	      4.22827      2.08068      4.24108        -0.121319     -0.010180     -0.005045
O	      6.46640      4.33175      4.23777         0.017731      0.047118     -0.032149
O	      6.27001      2.28248      6.19945         0.051729      0.026017     -0.026420
O	      8.33063      4.28528      6.21969         0.011798     -0.037480     -0.035629
O	      2.14255      4.04030      4.19398        -0.024639      0.028366      0.000768
O	      4.38183      6.38876      4.28978         0.043397     -0.021429     -0.036016
O	      4.37456      4.27923      6.12441         0.185761      0.047795     -0.191688
O	      6.39923      6.27682      6.18583        -0.007408     -0.021815     -0.006708
O	      6.30365      4.28564      8.25122         0.128385      0.007058     -0.255003
O	      8.45421      6.47432      8.26274        -0.003692     -0.161845      0.033790
O	      2.20618      6.39561      6.26268         0.064654      0.019012      0.026589
O	      4.22087      8.38006      6.32722        -0.050492      0.014090      0.029524
O	      4.28138      6.26760      8.39038        -0.019304      0.060975      0.210598
O	      6.42571      8.50483      8.48473        -0.126507     -0.021482     -0.220907
O	      6.24811      6.48317     10.59648        -0.171313     -0.129088     -0.070679
O	      8.35712      8.58128     10.63037         0.095534      0.055393      0.207240
