# total energy = -240.06260442 eV
 
CRYSTAL
PRIMVEC
0.008854 6.347671 6.274024 
6.306615 0.017747 6.265342 
4.220042 4.241649 -0.004056 
PRIMCOORD
36 1
Li	      2.10621      2.13212      0.02180         0.069719      0.042772     -0.041883
Li	      4.24616      8.51649      8.31334         0.016221     -0.022975     -0.056596
Li	      2.14584      4.22693      2.05283        -0.076621     -0.036131     -0.013020
Li	      4.20163      4.25019      4.13585        -0.066622     -0.060897      0.034901
Li	      4.26758      2.11324      6.27888         0.009004     -0.022926     -0.000938
Li	      6.34210      4.21384      6.28098        -0.018199      0.022169      0.058847
Li	      2.14152      6.33858      4.17660        -0.021055     -0.028043     -0.016026
Li	      2.10574      4.26380      6.27738         0.003924     -0.035132      0.001547
Li	      8.42145      8.46369      8.36645         0.011753      0.008718      0.000188
Sc	      6.42755      6.40063      8.29943         0.100687     -0.032279     -0.169091
Ti	      2.17447      2.17094      4.14962         0.460235      0.326470     -0.055219
V	      4.26174     10.55170      6.30504        -0.006658     -0.165322     -0.121040
V	      8.40454      4.24701      4.21451         0.042201     -0.222546     -0.042750
V	      4.21534      8.41689      4.19256        -0.020997      0.232846     -0.196683
V	      4.13127      6.24630      6.29147        -0.046019     -0.230326      0.294024
Fe	      6.32360      2.21109      4.19996         0.076085      0.038267      0.097773
Fe	      6.20799      2.14640      8.26351         0.058679      0.239203     -0.060552
Ni	      6.30720     10.55888      8.36721         0.032390     -0.026829      0.016271
O	      1.97512      2.08109      2.24136        -0.003478      0.008512      0.101658
O	      4.23300      4.32231      2.00798        -0.130455     -0.054523      0.127550
O	      4.07555      2.08781      4.19594        -0.181149      0.000188     -0.009545
O	      6.33030      4.35231      4.18693        -0.020871      0.138017      0.086761
O	      6.32075      2.08219      6.28312         0.007178     -0.001330     -0.015789
O	      8.56306      4.25360      6.15375         0.012785      0.096852      0.116579
O	      2.03758      4.07297      4.19489         0.207737     -0.405668      0.010868
O	      4.24512      6.35211      4.23794        -0.050789      0.519216     -0.062986
O	      4.19113      4.47856      6.25972        -0.038672      0.324371     -0.022635
O	      6.19140      6.36384      6.22583        -0.002430     -0.057922     -0.078410
O	      6.33216      4.19890      8.42522        -0.052492      0.070293     -0.360894
O	      8.46413      6.38126      8.33580        -0.052501     -0.038384      0.036921
O	      2.13773      6.35307      6.29669        -0.045823     -0.006727     -0.126684
O	      4.21364      8.39447      6.19829        -0.007676     -0.194638      0.574976
O	      4.21356      6.39613      8.32132         0.052701      0.062571     -0.008927
O	      6.31975      8.45615      8.44902        -0.041403     -0.106138     -0.090486
O	      6.33203      6.30332     10.47392         0.064979     -0.423959      0.008138
O	      8.52802      8.61370     10.42770        -0.342368      0.042231     -0.016847
