# total energy = -232.31649778 eV
 
CRYSTAL
PRIMVEC
0.017913 6.243971 6.361871 
6.284253 -0.000250 6.380511 
4.186195 4.171432 0.002992 
PRIMCOORD
36 1
Li	      6.30995     10.36628      8.46227         0.013042     -0.026908     -0.017448
Li	      6.33419      8.33519     10.51277        -0.002052      0.007214     -0.089422
Li	      2.08818      4.17402      2.38302        -0.016172      0.002752      0.025880
Li	      2.08265      2.24459      4.22535        -0.025827     -0.060618     -0.001534
Li	      4.02265      4.19038      4.24069         0.011376      0.007282      0.011228
Li	      0.17115      4.17332      4.23091        -0.067769     -0.010721     -0.017742
Li	      2.09146      6.07432      4.28551        -0.004928      0.035058      0.033095
Li	      4.16444      6.19071      6.33897        -0.007940     -0.063977      0.022368
Li	      8.37703      8.32899      8.56343         0.020065     -0.011913      0.048220
Sc	      2.16295      8.23061      6.29401         0.042334     -0.102920     -0.014651
Ti	      4.18372      2.19025      6.33114        -0.147155      0.398016      0.006376
V	      4.16537      2.17646      2.17556         0.032053      0.000519      0.070633
V	      8.26981      4.12646      4.22258         0.003175      0.007386     -0.130021
V	      4.22046      6.24796      2.29142         0.008375      0.041134     -0.066367
V	      6.31379      6.21767      8.57956         0.003565     -0.046582     -0.114533
Ni	      0.05173      6.22628      6.33039         0.018993      0.003651     -0.074472
Ni	      6.29047      4.17867      6.37990        -0.062718      0.050785      0.010979
Ni	      2.07217      4.21408      6.26663         0.102971     -0.095799      0.170486
O	      2.06320      2.10082      2.07951        -0.005349      0.009527     -0.016961
O	      4.21703      4.20314      2.08667        -0.018726      0.001378      0.082250
O	      4.22079      2.03550      4.34904         0.027222     -0.003554      0.085034
O	      6.46817      4.19621      4.31463         0.007787      0.008534     -0.106152
O	      6.23666      2.07776      6.51767        -0.038595      0.006774     -0.067919
O	      8.41288      4.21901      6.24501         0.028668      0.068527     -0.015230
O	      2.09050      4.15833      4.30288        -0.003668     -0.020945     -0.191204
O	      4.18436      6.25124      4.01882        -0.021068     -0.008929      0.144805
O	      4.23036      4.06860      6.32165        -0.006109     -0.392564      0.018235
O	      6.41951      6.21593      6.49057         0.232338      0.068976     -0.032073
O	      6.29114      4.13029      8.42881         0.013542     -0.024468      0.132466
O	      8.45678      6.23572      8.34172        -0.030000     -0.005154     -0.048517
O	      2.09787      6.24044      6.32501         0.088794      0.200481      0.023125
O	      4.19576      8.34905      6.45623        -0.152926     -0.126755     -0.049921
O	      4.21802      6.34929      8.60945         0.025729     -0.017202     -0.002090
O	      6.18438      8.22242      8.44169        -0.032271      0.049899      0.100619
O	      6.14468      6.25449     10.56258        -0.023408      0.023653      0.077082
O	      8.35830      8.43729     10.62953        -0.013347      0.027465     -0.006626
