# total energy = -254.52378819 eV
 
CRYSTAL
PRIMVEC
0.023897 6.299551 6.485155 
6.388347 -0.014121 6.524026 
4.232444 4.198444 0.017163 
PRIMCOORD
36 1
Li	      6.48656      6.23913     12.81198        -0.010487     -0.028905     -0.064255
Li	      2.19949      6.24794      8.59745         0.020918     -0.014493     -0.037680
Li	      6.53384      8.24191     10.78757        -0.031456      0.032925     -0.003695
Li	      8.49194      4.24353      8.75767        -0.004916     -0.000744      0.027032
Li	      6.31444      4.34150     10.79954        -0.036486     -0.075731     -0.059476
Li	      8.34812      6.34024     10.79027         0.023139     -0.014141     -0.018307
Li	      4.18311      6.27715      6.48737         0.030067      0.033006     -0.063579
Li	      8.45006      8.35255      8.85962        -0.045683     -0.015316      0.016104
Li	      6.50093      6.27925      8.90018         0.016219      0.013368      0.004758
Sc	     10.53169      6.24397      8.73440        -0.047885     -0.021616      0.044042
Ti	      4.36308      8.34906      8.60624         0.225904     -0.171058     -0.274987
Ti	      6.39227      4.26450      6.63089         0.069177      0.046484      0.263009
Mn	      2.16559      8.26088      6.38278         0.031270     -0.009666     -0.021168
V	      2.11625      2.12550      4.26552        -0.075864      0.015454      0.136266
V	      8.50223      6.25419      6.57684        -0.046367      0.042525      0.003235
V	      2.14855      4.28299      6.52831         0.007929     -0.153372     -0.024629
Cr	      4.35413      6.23839     10.78956        -0.050666     -0.052051      0.040013
Cr	      4.27808      4.19654      4.34624         0.035289      0.050965      0.016012
O	      2.18086      2.12167      2.26910         0.034902      0.025026     -0.051135
O	      4.24109      4.11732      2.33292         0.043253     -0.060345      0.080657
O	      4.23929      2.11428      4.28743         0.042709      0.023930     -0.041694
O	      6.35101      4.30266      4.47435         0.060897     -0.043003      0.052977
O	      6.36544      2.23561      6.58221         0.059685      0.098183      0.022357
O	      8.36994      4.18145      6.38298        -0.140693     -0.053423      0.007606
O	      2.26025      4.10177      4.47245         0.062244      0.065110     -0.019326
O	      4.30577      6.19865      4.28747        -0.031675      0.010400     -0.039275
O	      4.32355      4.18565      6.39543         0.091137      0.082735     -0.063842
O	      6.38799      6.29224      6.38899        -0.083568     -0.137348      0.007903
O	      6.39604      4.18484      8.49768        -0.016863      0.005065     -0.320892
O	      8.53850      6.25817      8.67630         0.014489      0.004853      0.059708
O	      2.14201      6.18896      6.49946        -0.009571      0.082681      0.010892
O	      4.29713      8.38790      6.69856         0.022431      0.009302      0.334038
O	      4.25162      6.46016      8.79127        -0.013030      0.227737      0.031576
O	      6.28520      8.40057      8.58221        -0.243211     -0.025680     -0.022827
O	      6.29067      6.28810     10.86780         0.018984     -0.008710     -0.039039
O	      8.51735      8.48328     10.81290        -0.022223      0.015852      0.007620
