# total energy = -254.93191757 eV
 
CRYSTAL
PRIMVEC
0.004735 6.290794 6.344080 
6.472358 -0.017015 6.366155 
4.314189 4.208038 -0.010175 
PRIMCOORD
36 1
Li	      6.43773      6.30673     12.61078         0.027311      0.025168     -0.051041
Li	      4.34224      8.40314      8.36184        -0.035126      0.017934      0.006815
Li	      6.51218      8.33158     10.65007         0.050916      0.004194      0.006884
Li	     10.72764      6.28008      8.45091         0.023146     -0.027825      0.054877
Li	      8.56261      4.32541      8.44408        -0.025816     -0.015627      0.045958
Li	      8.83205      6.18792      6.45507         0.033822      0.031368      0.030568
Li	      0.02789      4.25409      4.27455        -0.006541      0.028204     -0.014270
Li	      8.57042      6.22495     10.49762        -0.036618     -0.025411     -0.041859
Li	      6.27633      8.44307      6.33866        -0.057652     -0.014070     -0.029970
Sc	      8.65970      2.12851      6.36128         0.000593      0.014494     -0.030742
Ti	      6.37954      4.13621      2.11480        -0.241794      0.039479     -0.081977
Ti	      4.12030      4.10662      4.27440        -0.441292      0.013603     -0.017688
Mn	      8.67764      8.29333      8.53076        -0.002860     -0.059924     -0.011212
V	      4.41777      6.35119     10.59647         0.056470     -0.000098      0.062378
V	      2.16485      2.09383      4.20908        -0.023904      0.043645      0.009859
V	      6.51018      4.14988      6.36856         0.023283     -0.013197     -0.057744
V	      6.53256      6.32201      8.45591         0.001878      0.016359      0.046541
Cr	      4.30097      6.31283      6.32876         0.035216      0.026670     -0.044738
O	      2.18934      1.91237      2.11572        -0.007066     -0.135702     -0.060512
O	      4.49147      4.17781      2.28479         0.274795     -0.037010      0.084644
O	      4.28698      2.14291      4.26865         0.051529      0.124072     -0.000472
O	      6.53548      4.18895      4.21313        -0.047774     -0.122890     -0.075299
O	      6.53734      2.18046      6.38622         0.026512      0.001632      0.018187
O	      8.62093      4.20384      6.32308        -0.017356     -0.001121      0.020811
O	      2.26269      4.18953      4.21515         0.454595      0.001723      0.034875
O	      4.34709      6.12725      4.31909        -0.055774     -0.090599      0.002639
O	      4.39649      4.24482      6.22710        -0.014735      0.003422     -0.160649
O	      6.31757      6.23124      6.35040        -0.060660     -0.009602     -0.033108
O	      6.49531      4.28040      8.36236         0.018854      0.187664      0.010411
O	      8.49003      6.26810      8.46912         0.123689     -0.000328     -0.032294
O	      2.22818      6.28478      6.50670         0.012742     -0.040268      0.186106
O	      4.27817      8.29929      6.31026        -0.031236     -0.016086      0.017125
O	      4.33156      6.31060      8.42332        -0.050460      0.001406     -0.037252
O	      6.48543      8.46770      8.44512        -0.083068      0.040003      0.011419
O	      6.36163      6.33162     10.49676         0.022869      0.029249      0.122991
O	      8.64136      8.54047     10.63183         0.001512     -0.040532      0.007741
