# total energy = -248.53082465 eV
 
CRYSTAL
PRIMVEC
0.091019 6.474199 6.200788 
6.533695 0.076529 6.215330 
4.395050 4.365438 0.011403 
PRIMCOORD
36 1
Li	      2.25223      2.22920      0.02274        -0.022863      0.027308     -0.019786
Li	      4.49154      8.63056      8.27290         0.027873     -0.032848      0.023551
Li	      6.55519      6.59384      4.32465        -0.044195      0.002864     -0.126817
Li	      8.53650      6.52452      6.27567         0.039049     -0.027728      0.011852
Li	      6.56949      4.68343      6.23718        -0.067737     -0.021357     -0.062462
Li	      0.17695      4.27707      4.16076         0.023275     -0.010875     -0.015247
Li	      6.57830      8.45410      6.21883         0.025572      0.038677      0.025059
Li	      4.72484      6.56166      6.20718        -0.034742     -0.049058     -0.052417
Li	      6.60636      6.52294      8.05634         0.006813      0.014058      0.110992
Sc	      4.34234      4.31514      4.24615         0.008604      0.012086     -0.024717
Ti	      2.36355      6.52650      8.15181         0.013794      0.158168     -0.137929
Ti	      6.58593      2.37104      8.20653         0.019836      0.106149     -0.138613
Mn	      8.70609      4.48819      4.20394         0.013458     -0.091690     -0.041676
V	      4.43477     10.65204      6.26381         0.068080      0.223329      0.066838
V	      6.54157      2.23014      4.20277         0.108466      0.032149      0.037078
V	      2.26014      6.48030      4.14547         0.059417      0.158530     -0.028282
V	      4.39509      4.37520      8.15607         0.025097      0.002824      0.328321
Cu	      8.59317      4.36104      8.28205        -0.129062     -0.109015      0.016105
O	      2.04503      1.97783      2.10737         0.029216     -0.188852      0.038080
O	      4.57683      4.45133      2.03365         0.095945      0.016090      0.031682
O	      4.54372      2.24756      4.09947        -0.027643      0.036386      0.006992
O	      6.52090      4.29166      4.06166        -0.023325     -0.055607      0.001651
O	      6.60785      2.07903      6.28354        -0.022110      0.010280      0.171484
O	      8.95920      4.40323      6.27201        -0.038387     -0.025139      0.160357
O	      2.27393      4.47924      4.11586        -0.047422     -0.079274     -0.087446
O	      4.32434      6.48042      4.02001         0.056929     -0.025851     -0.011257
O	      4.41407      4.38623      6.24248         0.002649      0.053872     -0.221685
O	      6.61091      6.55462      6.20453         0.027590      0.031766     -0.019748
O	      6.44694      4.27033      8.27812        -0.078720     -0.081836      0.002921
O	      8.97051      6.68868      8.31103         0.042794     -0.059469     -0.029888
O	      2.13623      6.51381      6.23956        -0.005888     -0.030849      0.137233
O	      4.47052      8.89054      6.24222         0.002374     -0.207305     -0.005179
O	      4.27752      6.50426      8.23681        -0.105009      0.111085     -0.052215
O	      6.73755      8.84532      8.34030         0.035825      0.080011     -0.080299
O	      6.69747      6.61578     10.47124        -0.053266      0.003271     -0.069771
O	      8.69204      8.64040     10.29108        -0.032287     -0.022149      0.055237
