# total energy = -251.26979477 eV
 
CRYSTAL
PRIMVEC
-0.013178 6.291067 6.494393 
6.330905 -0.024244 6.505391 
4.206664 4.187733 -0.002664 
PRIMCOORD
36 1
Li	      6.33940      4.14953      2.33540        -0.035801      0.015815      0.062725
Li	      4.09804      0.06544      4.27478        -0.019165     -0.021213      0.004952
Li	      6.20521      2.21089      4.27125         0.001969     -0.034802     -0.030318
Li	      4.21811      6.24712      2.17517         0.030115      0.021976      0.007727
Li	      4.33792      4.04762      4.44056        -0.003846     -0.017900      0.091072
Li	      4.14418      2.14936      6.33338         0.006783     -0.013507     -0.076329
Li	      6.39994      8.26608      6.56939         0.054263     -0.039548      0.026813
Li	      4.29646      6.20131      6.59818         0.003830     -0.031303     -0.029924
Li	      6.25722      6.33350      8.50204         0.015579     -0.012555     -0.055073
Sc	      8.41086      4.19114      8.63389        -0.041942     -0.031346     -0.000368
Ti	      6.37404      0.09130      6.50862         0.047187      0.177316      0.002560
Ti	      2.18067      6.31026      4.34767         0.149545      0.042223      0.037739
Mn	      6.32750      6.19924      4.37128         0.043758      0.038255     -0.020692
V	      8.39255      8.33370     12.98628        -0.050870      0.060717      0.025254
V	      6.24383      4.18440      6.46671        -0.000040      0.009993     -0.004174
V	      6.31827      4.22069     10.84263        -0.049029      0.013743     -0.010390
V	      8.30769      8.42647      8.64892        -0.070209      0.062600      0.038683
Fe	      4.32524      8.24512      8.75188        -0.099857      0.008841     -0.133069
O	      2.18394      2.13211      2.10796         0.019690      0.027639      0.049835
O	      4.18408      4.12992      1.93859        -0.003881      0.018847     -0.114710
O	      4.24105      2.08997      4.14854        -0.029463      0.018345      0.152298
O	      6.29349      4.13804      4.43831         0.000523     -0.022339     -0.029692
O	      6.30252      2.03808      6.52103        -0.000679     -0.257597      0.029012
O	      8.47565      4.16067      6.53341         0.040543      0.087350      0.016042
O	      2.09075      4.31915      4.25202        -0.020910      0.139821     -0.013159
O	      4.09989      6.41139      4.37023        -0.237495     -0.074168     -0.018838
O	      4.29938      4.13496      6.61162        -0.002358      0.013412     -0.008642
O	      6.35116      6.13882      6.50336        -0.000683     -0.014067      0.015765
O	      6.25622      4.17670      8.77854         0.020697     -0.000169     -0.087358
O	      8.41169      6.31852      8.88117         0.009222     -0.038015      0.101899
O	      2.00125      6.28111      6.35090        -0.145656     -0.080123     -0.087189
O	      4.15405      8.49758      6.38683         0.072627      0.028253      0.075188
O	      4.19569      6.25836      8.64299        -0.011971     -0.062810     -0.027743
O	      6.30456      8.35864      8.61857         0.180447     -0.004197     -0.022917
O	      6.42213      6.21468     10.99153         0.074354      0.070850      0.105892
O	      8.44180      8.28867     10.82418         0.052723     -0.100335     -0.072871
