# total energy = -138.65270925 eV
 
CRYSTAL
PRIMVEC
-4.060387 0.000018 -0.000049 
-2.030203 -4.293331 -6.118134 
2.030329 -4.269760 6.102863 
PRIMCOORD
24 1
Li	     -1.01429     -5.33200      3.09226         0.002326     -0.020186      0.031768
Li	     -1.01467     -5.29918     -1.05667         0.000539      0.049505      0.043289
Li	     -3.04476     -1.17545      1.00631         0.000821     -0.025073     -0.075339
Li	     -1.01434     -3.15542      1.00548        -0.001773      0.010865     -0.046470
Li	     -1.01443     -3.16877     -3.01452         0.000583      0.041992      0.034065
Li	     -3.04483     -7.58415     -1.06484         0.000373     -0.057358      0.019948
Mn	     -3.04457     -5.32349      1.01578        -0.000223      0.162900      0.067240
Mn	     -3.04471     -5.35570     -3.03011        -0.000209      0.024734     -0.007629
Mn	     -1.01444     -7.53281      0.99446        -0.000061     -0.085450     -0.093652
Ni	     -1.01452     -1.08649     -1.04269        -0.000122     -0.056952     -0.007697
Ni	     -3.04466     -3.18074     -1.02666         0.000870      0.079006     -0.012355
Ni	      1.01581     -3.20509      3.07031        -0.000191     -0.133146      0.031217
O	     -3.04474     -3.39497     -3.14002        -0.004143     -0.117308     -0.113952
O	     -1.01442     -7.68043     -0.93764         0.002763      0.213507      0.142614
O	     -3.04454     -3.42703      1.00814        -0.000574     -0.031857      0.048457
O	     -1.01444     -5.55545      0.99006         0.001116     -0.123291     -0.002570
O	     -1.01435     -5.44432     -3.04759        -0.003005      0.122660     -0.012259
O	     -3.04468     -1.20108     -1.01851        -0.001153      0.204795      0.000560
O	     -1.01443     -2.97799      3.06501        -0.000834      0.217725      0.027295
O	     -1.01441     -3.03039     -1.02164        -0.001399     -0.213793     -0.014130
O	     -3.04465     -7.30668      0.99625         0.001584      0.124093      0.002287
O	     -1.01457     -0.90785      1.10804         0.004874     -0.066713      0.235592
O	     -3.04451     -5.25496      2.94709        -0.001703     -0.140028     -0.162395
O	     -3.04462     -5.19764     -1.03366        -0.000459     -0.180628     -0.135885
