# total energy = -253.29196387 eV
 
CRYSTAL
PRIMVEC
-0.035820 6.354340 6.434057 
6.413011 -0.001119 6.399011 
4.288801 4.226579 -0.014595 
PRIMCOORD
36 1
Li	      0.16484      6.24656      6.44269        -0.015530      0.021288      0.005390
Li	      2.17665      6.25462      8.45044         0.029673     -0.005303      0.014766
Li	      4.37747      8.36486      8.47488         0.013037     -0.001632     -0.087622
Li	      4.13964      0.05521      4.18456        -0.049019      0.004833     -0.049507
Li	      6.47984      6.24077      4.30663        -0.007968      0.006483      0.029283
Li	      6.42285      4.32016      6.28522         0.007073      0.025906      0.011054
Li	      2.07891      6.34319      4.50332        -0.027864     -0.028211     -0.041489
Li	      6.31993      8.60679      6.52485         0.009610      0.010452     -0.028463
Li	      4.10740      6.41853      6.49467        -0.035785     -0.024292      0.016131
Sc	      4.32015      4.27015      4.41811        -0.041907      0.021446     -0.009965
Ti	      0.02993      2.11316      2.12991         0.104017     -0.020796     -0.081192
Ti	      2.15624      4.21138      2.13017         0.119243     -0.107034      0.023977
Mn	      2.17344      8.37947      6.36352        -0.046051      0.101232     -0.014943
Mn	      6.39895      8.46643     10.69768         0.019607     -0.052370      0.081133
V	      8.49008      6.31388      6.34681        -0.081218      0.067693      0.145014
V	      4.30697      8.49366      4.35948         0.002206      0.030591     -0.162172
V	      4.20715      4.31037      8.52048         0.068456     -0.046285      0.003180
V	      6.31394      6.37931      8.51207         0.221351      0.163354     -0.105227
O	      1.96464      2.25470      2.13155        -0.147766      0.085423      0.049033
O	      4.11153      4.35929      2.21299        -0.087489      0.089103     -0.015150
O	      4.25475      2.13594      4.39855        -0.026304      0.059774     -0.072426
O	      6.32192      4.23486      4.27113        -0.010467      0.042595     -0.036802
O	      6.29619      2.10685      6.59906        -0.004561     -0.058243      0.117012
O	      8.50964      4.22471      6.60874        -0.004296     -0.031370      0.091375
O	      2.12304      4.25872      4.08272         0.026583     -0.001549     -0.069206
O	      4.25212      6.40425      4.08050        -0.006727     -0.009714     -0.065320
O	      4.26712      4.19364      6.47458        -0.034343      0.044189     -0.035576
O	      6.54915      6.31685      6.54195        -0.022322     -0.190730     -0.045370
O	      6.43413      4.16524      8.61660         0.041434     -0.031681      0.031518
O	      8.56986      6.33182      8.44795         0.131271     -0.011827     -0.026159
O	      2.09405      6.38393      6.45682         0.040896     -0.048491     -0.000312
O	      4.27738      8.47728      6.26745         0.034771     -0.034154      0.207545
O	      4.36089      6.26592      8.49933        -0.204368      0.026452      0.020531
O	      6.44221      8.40086      8.55314        -0.061860     -0.001075     -0.062625
O	      6.43755      6.26047     10.50408         0.051092     -0.113975      0.121986
O	      8.60221      8.47131     10.51828        -0.004475      0.017918      0.040597
