# total energy = -249.34449788 eV
 
CRYSTAL
PRIMVEC
-0.016521 6.350792 6.242064 
6.402923 -0.007220 6.232986 
4.259065 4.218317 0.004826 
PRIMCOORD
36 1
Li	      4.15721      4.15673      0.06751        -0.020441     -0.022639      0.015173
Li	      8.60204      2.23279      6.26521         0.102039      0.040519     -0.001558
Li	      4.24379      8.50364      8.19662        -0.006244      0.020607     -0.004441
Li	      6.36856      2.33399      8.22256        -0.021621     -0.045162     -0.007997
Li	      8.32833      4.22521      8.24309        -0.031734     -0.013442      0.018297
Li	      6.43752      4.15860      6.48944         0.045658     -0.020176     -0.081536
Li	      6.39598      4.22807     10.23121         0.014099     -0.016334      0.081553
Li	      4.50178      4.19903      8.29223         0.023420      0.009112      0.017384
Li	      6.41331      6.10802      8.31488         0.065842     -0.010522      0.017343
Sc	      2.06290      6.35830      8.18148        -0.014384      0.101006     -0.108614
Ti	      4.33152      6.27101     10.38617         0.035545     -0.040852     -0.060690
Ti	      2.09671      2.11275      4.10009        -0.033005     -0.018664     -0.251311
V	      6.38226      8.42366     10.42075        -0.047132      0.042082      0.017009
V	      4.24678      4.23116      4.10730         0.055649     -0.030316      0.009112
V	      8.51445      6.35912     10.28923        -0.033027      0.139564      0.015002
Cr	      8.55606      6.32361      6.35483         0.021378      0.010551      0.044532
Cr	      6.32823      8.41372      6.29009        -0.156505      0.147858      0.056116
Co	      4.29482      6.37407      6.34233        -0.017326     -0.048389     -0.003274
O	      2.15720      2.09283      2.23951         0.018262      0.064755      0.232978
O	      4.30899      4.19486      2.18144        -0.028870      0.005049     -0.056304
O	      4.24558      2.13056      4.26675        -0.068952     -0.040817     -0.040027
O	      6.40290      4.21987      4.12390         0.003877     -0.013507      0.033498
O	      6.26601      2.14224      6.12271        -0.023470     -0.002360      0.016039
O	      8.52883      4.31539      6.07367        -0.026420     -0.048008     -0.080919
O	      2.16189      4.22995      4.24502         0.011991      0.019974     -0.068634
O	      4.29240      6.23022      4.23482         0.158110      0.030096     -0.067820
O	      4.13797      4.17912      6.18466         0.003695     -0.070704      0.057030
O	      6.46781      6.40885      6.15475         0.009460     -0.093897      0.017763
O	      6.40732      4.22096      8.33495        -0.006618      0.015113      0.002160
O	      8.53559      6.32844      8.35601        -0.007780     -0.035698     -0.057140
O	      2.11227      6.24871      6.13290         0.072526     -0.031163      0.090574
O	      4.34741      8.36239      6.25806         0.061568      0.087755     -0.016726
O	      4.20240      6.38297      8.46085        -0.013316     -0.037731      0.196027
O	      6.36239      8.53747      8.34114        -0.006778     -0.094618      0.008491
O	      6.35657      6.42780     10.37909        -0.153628      0.004397     -0.033473
O	      8.46333      8.45679     10.45329         0.014132     -0.003437     -0.005617
