# total energy = -252.01235821 eV
 
CRYSTAL
PRIMVEC
0.010108 6.313793 6.299230 
6.425233 -0.004082 6.313434 
4.279134 4.214261 0.001951 
PRIMCOORD
36 1
Li	      4.35470      4.20808      0.16252        -0.072190      0.030590      0.024391
Li	      6.25820      4.26459      2.06205        -0.050054     -0.013256      0.023280
Li	      4.24820      6.15266      2.10429        -0.044546     -0.023632      0.030251
Li	      2.22280      4.23779      2.14874        -0.020244     -0.022128      0.065980
Li	      4.20298      4.27632      4.12910        -0.143436     -0.021181      0.056368
Li	      6.38518      4.17159      6.35039         0.001466     -0.028860      0.018317
Li	      0.08031      4.17903      4.14991         0.117004     -0.050559      0.021525
Li	      2.22570      6.21510      4.21078         0.025915     -0.039940     -0.071083
Li	      4.18381      6.30978      6.24065         0.006942      0.040780     -0.033435
Sc	      4.39067      4.19902      8.32789        -0.087925     -0.086152     -0.109824
Ti	      8.59778      4.24024      4.33708        -0.005560     -0.010517      0.229122
Ti	      6.20895      6.37411      4.18780        -0.536690      0.548538     -0.194722
V	      2.14821      8.34063      6.34065        -0.031529      0.378107      0.077822
V	      8.59967      6.26352      6.31279         0.126236     -0.052119      0.014238
V	      6.45829      6.26694      8.33867         0.134735     -0.046822      0.075350
Cr	      4.25629      2.19195      2.08344        -0.026438      0.070490     -0.101968
Cr	      6.44277      2.16715      4.21627         0.107986      0.036655     -0.060176
Fe	      2.10896      4.35329      6.24658        -0.035788      0.380784      0.329408
O	      2.23547      2.07770      2.21935        -0.012205     -0.061937      0.090441
O	      4.28144      4.11508      2.15018         0.031880     -0.068766     -0.033405
O	      4.37781      2.05347      4.18262        -0.000575     -0.084816     -0.098366
O	      6.63055      4.26014      4.21373         0.093735     -0.021219     -0.015063
O	      6.48780      2.11522      6.19515        -0.030005     -0.041918      0.047146
O	      8.60245      4.13620      6.25893        -0.001555     -0.030375     -0.319178
O	      2.11345      4.04455      4.24127        -0.039575     -0.645100     -0.457759
O	      4.41439      6.29265      4.17649         0.513316     -0.023216      0.066501
O	      4.26511      4.14702      6.32486         0.070168      0.054691     -0.040642
O	      6.45644      6.29344      6.24770        -0.069254      0.231496     -0.021708
O	      6.38083      4.25937      8.42176        -0.031851      0.060180     -0.030938
O	      8.49063      6.32902      8.41561        -0.018889      0.048733      0.002839
O	      2.14869      6.42820      6.27113         0.001377     -0.652776     -0.011085
O	      4.16005      8.43355      6.41007         0.088259     -0.050314     -0.108825
O	      4.40610      6.34755      8.50292        -0.076262      0.058980      0.019476
O	      6.37069      8.41160      8.42807         0.005677     -0.019646      0.517610
O	      6.31395      6.44769     10.39260        -0.074788      0.062806      0.036951
O	      8.47403      8.53331     10.52516         0.084663      0.092421     -0.038839
