# total energy = -254.18084891 eV
 
CRYSTAL
PRIMVEC
-0.004360 6.320991 6.501612 
6.293981 0.040815 6.455709 
4.195274 4.183256 0.027783 
PRIMCOORD
36 1
Li	      4.20913      4.16343      0.20715        -0.011620      0.033155      0.026282
Li	      6.20051      4.25567      2.33130         0.006081     -0.014397      0.021030
Li	      4.10595      2.26258      2.27834        -0.005888      0.064891      0.005481
Li	      6.23229      2.20100      4.23298        -0.006694     -0.034178     -0.001565
Li	      2.24194      4.05519      2.29872         0.005975      0.025683      0.082603
Li	      2.08351      2.06490      4.18179        -0.070451      0.019179      0.036573
Li	      4.27488      4.19269      4.16088         0.014894      0.062318      0.030105
Li	      4.24275      8.34194      4.37284         0.007735     -0.004453     -0.034025
Li	      4.18656      6.34610      6.38034         0.006928     -0.031064     -0.177240
Sc	      4.24389      2.09613      6.36262         0.050467      0.013405     -0.012898
Ti	      1.92903      4.31927      6.39972        -0.100822      0.069853     -0.399945
Ti	      8.37182      8.45376      8.72937         0.007625      0.016725      0.088553
V	      4.27553      6.17462      2.28213        -0.130396      0.127607      0.072268
V	      6.22051      4.26523      6.41913         0.045597      0.033697      0.056363
V	      2.07500      6.29276      4.35988         0.060496     -0.078742     -0.029851
Cr	      2.15141      8.38184      6.58014         0.010011     -0.021365     -0.059380
Cr	      4.19127      0.04441      4.28285         0.064663     -0.047429     -0.015704
Cr	      6.26375      6.34006      8.67190         0.088522     -0.118962      0.155590
O	      2.08740      2.11040      2.02147         0.156618     -0.026485     -0.036031
O	      4.18313      4.28048      2.19896         0.030811     -0.129568     -0.011012
O	      4.21954      2.04094      4.37575        -0.005059      0.059580     -0.006356
O	      6.41100      4.21337      4.35920        -0.033988      0.012547     -0.141007
O	      6.37242      2.15145      6.57912         0.024548     -0.055515      0.019011
O	      8.38717      4.14971      6.35308         0.035117      0.000824     -0.012696
O	      2.09087      4.20875      4.53188         0.017277     -0.025954      0.359219
O	      4.16332      6.32181      4.21386         0.071793     -0.031467      0.015066
O	      4.09461      4.22500      6.64415        -0.088732     -0.043474      0.089741
O	      6.30165      6.42106      6.61845         0.009219      0.110220      0.059896
O	      6.18047      4.27103      8.59502        -0.185993      0.022405     -0.002968
O	      8.33382      6.36955      8.64507        -0.066648      0.125450     -0.024390
O	      2.09578      6.30858      6.44328        -0.004784     -0.086663      0.110546
O	      4.23143      8.41966      6.53458         0.166982     -0.013634      0.015504
O	      4.26533      6.22067      8.74954        -0.076985     -0.085518     -0.034374
O	      6.40256      8.36367      8.57146         0.037168     -0.036445     -0.017349
O	      6.24522      6.34004     10.63462        -0.077431      0.007251     -0.118988
O	      8.38708      8.47058     10.77385        -0.053036      0.080525     -0.108050
