# total energy = -243.56047171 eV
 
CRYSTAL
PRIMVEC
0.035916 6.275293 6.550071 
6.345691 -0.009984 6.596932 
4.206933 4.190573 0.016886 
PRIMCOORD
36 1
Li	      4.22082      2.09402      2.48812         0.035623     -0.043958      0.003226
Li	      6.14048      2.24430      4.38812         0.066225     -0.067699     -0.027391
Li	      6.29556      2.11530      8.74343        -0.012876      0.021815     -0.044357
Li	      6.49186      6.20512      4.61766         0.009828     -0.003858      0.036757
Li	      4.32767      3.99889      4.60086        -0.100904      0.072375      0.019014
Li	      4.18145      2.22028      6.35246        -0.030862     -0.053439      0.003057
Li	      6.13910      4.24289      6.36605         0.084412     -0.059290     -0.041387
Li	      4.34621      6.06816      6.57527        -0.037154      0.067151      0.022702
Li	      4.23333      4.22771      8.53425        -0.002333     -0.006711      0.014814
Sc	      6.26121      6.40593      8.66969        -0.087999      0.075645      0.059247
Ti	      6.29000      0.09998      6.63128        -0.167967      0.190233      0.027715
Ti	      4.27182      8.21968      4.35398         0.005320     -0.114539     -0.051114
V	      2.17579      8.36970      6.57214        -0.005146      0.070764     -0.040130
V	      6.34891      4.15843      2.33555         0.033328     -0.067004      0.141987
V	      2.13633      4.13741      2.21223        -0.048803      0.006559     -0.015479
V	      2.14140      6.26496      4.36501        -0.023989     -0.018161     -0.089922
Co	      4.17147      0.12786      4.38574        -0.013545      0.043563     -0.052885
Cu	      2.28383      4.07812      6.56995        -0.081232     -0.025511      0.103285
O	      2.13463      2.09083      1.99860         0.006784      0.031963     -0.024922
O	      4.18415      4.19697      1.98489         0.016643      0.020295     -0.223943
O	      4.21924      2.06176      4.41452        -0.128433     -0.504359      0.051071
O	      6.31680      4.22122      4.25625         0.260716      0.201478      0.008085
O	      6.46841      1.98240      6.53349        -0.025740     -0.258733      0.046639
O	      8.56087      4.16389      6.67543         0.271753     -0.003687      0.040877
O	      2.02084      4.18351      4.28341        -0.114655     -0.035647     -0.105861
O	      4.14576      6.35927      4.40441        -0.004158      0.327676      0.014901
O	      4.18990      4.15264      6.57336         0.133101     -0.020236     -0.015400
O	      6.33590      6.28013      6.67494        -0.019497     -0.072152     -0.026880
O	      6.43880      4.19888      8.97487         0.015485     -0.002686      0.197319
O	      8.43593      6.15272      8.98861        -0.002992      0.000886      0.038229
O	      2.04849      6.27499      6.51561        -0.146666      0.072872     -0.078536
O	      4.24418      8.50454      6.37880        -0.057763      0.064177     -0.140865
O	      4.24187      6.26807      8.79823        -0.025761     -0.005205     -0.002056
O	      6.35686      8.45569      8.84026         0.012776     -0.042158      0.082597
O	      6.44037      6.20239     11.04745         0.019785     -0.036161      0.077585
O	      8.62556      8.35075     11.12271         0.166695      0.173741     -0.007982
