# total energy = -250.63213688 eV
 
CRYSTAL
PRIMVEC
-0.007496 6.335052 6.264525 
6.409481 -0.009875 6.266897 
4.264546 4.216797 0.001617 
PRIMCOORD
36 1
Li	      6.37241      4.19555      2.18904         0.009278     -0.002646     -0.003792
Li	      6.45702      8.48844     10.36438         0.072703      0.026499     -0.054786
Li	     10.53865      6.42417      8.42087        -0.050215     -0.001094     -0.000542
Li	      8.43492      4.30320      8.44089        -0.012780     -0.020390      0.025483
Li	      4.32407      4.29887      4.12833         0.051462      0.055881     -0.014022
Li	      6.35965      4.23186      6.37283         0.010774      0.009623      0.049178
Li	      8.53255      6.29970     10.23082        -0.021534     -0.019973     -0.024037
Li	      8.65276      8.30993      8.40009         0.051080     -0.034912      0.006841
Li	      6.51970      6.22575      8.38110         0.011039      0.000983     -0.003738
Sc	      8.44023      2.09367      6.31302        -0.039708      0.015962     -0.016624
Ti	      4.32306      2.18048      2.23089         0.095318      0.159474      0.104051
Ti	      4.27359      6.22048      6.28483        -0.084997     -0.053842      0.011194
V	      6.40821      0.01546      6.26011         0.025447      0.029011      0.016127
V	      4.21467      6.30229     10.35973         0.042673     -0.007270     -0.023827
V	      8.54989      6.35806      6.37762        -0.006602     -0.042609     -0.180227
V	      2.14935      4.23092      6.25242        -0.039064      0.018524      0.034370
Cr	      6.40726      4.20529     10.33700        -0.053053     -0.008451      0.160800
Co	      6.36429      6.28863      4.12094        -0.012954     -0.047859     -0.054694
O	      2.31155      2.09680      2.05907         0.108972      0.036085      0.037325
O	      4.29246      4.07162      2.01920         0.030846     -0.161896      0.044789
O	      4.33162      2.07317      4.14365        -0.011479      0.063863     -0.133460
O	      6.54904      4.25507      4.17997        -0.056230      0.045646      0.024960
O	      6.39290      2.00673      6.27730        -0.081612      0.071031      0.013786
O	      8.60409      4.26462      6.19129        -0.018586     -0.100039      0.003107
O	      2.02226      4.19116      4.26002        -0.030143     -0.007157     -0.047319
O	      4.24089      6.39215      4.32116        -0.001904     -0.000569      0.061897
O	      4.23140      4.18790      6.24079         0.039595      0.173751      0.012678
O	      6.36811      6.40087      6.25829         0.060413     -0.086284      0.009849
O	      6.41816      4.18837      8.44373        -0.013271      0.014131     -0.109405
O	      8.53809      6.31803      8.24505        -0.032741     -0.013944      0.111089
O	      2.10216      6.29053      6.25276         0.053296      0.023646      0.016915
O	      4.24497      8.45102      6.28082         0.005264     -0.029142     -0.026886
O	      4.24633      6.43836      8.26119        -0.006199      0.008208     -0.057949
O	      6.22532      8.44083      8.26374        -0.156326      0.011237      0.032127
O	      6.32352      6.24923     10.50911         0.009293     -0.032603     -0.036034
O	      8.60062      8.51005     10.45967         0.051945     -0.092878      0.010776
