# total energy = -248.75307675 eV
 
CRYSTAL
PRIMVEC
-0.024717 6.394635 6.390036 
6.295248 0.006160 6.358929 
4.185580 4.231246 0.015335 
PRIMCOORD
36 1
Li	      6.22809      4.28843      2.22142        -0.088460      0.068320      0.118728
Li	      8.26208      4.24102      4.34345        -0.061435      0.022576      0.037679
Li	      6.24002      2.30814      4.36526        -0.012655      0.073183     -0.058123
Li	      0.07767      2.05985      2.05220         0.028409     -0.046904     -0.045504
Li	      4.28998      4.19316      4.34413        -0.030194     -0.010819      0.064025
Li	      4.28552      2.17944      6.21328         0.004944      0.006701     -0.026168
Li	      6.27089      4.09758      6.22373        -0.008218     -0.034250      0.040482
Li	      2.13983      4.28649      6.34035         0.022753      0.025619     -0.012369
Li	      4.12693      6.33725      6.37017        -0.056960     -0.032600      0.026946
Sc	      4.17083      2.11439      2.17683        -0.024424     -0.000545      0.005940
Ti	      4.14635      4.30312      8.37693        -0.104147      0.064693     -0.378729
Ti	      6.29200      6.37786      8.32241        -0.042266      0.047788     -0.366616
V	      6.28423      0.10078      6.33897         0.065220      0.019241     -0.076358
V	      8.38852      4.25192      8.44878         0.012769     -0.067621      0.038131
V	      6.27963      6.26108      4.36018         0.057451     -0.040488     -0.012612
V	      2.14803      6.36611      4.32241         0.013002     -0.006180      0.042405
Cr	      4.16536      8.49312      4.31071         0.029081      0.018256      0.078394
Cu	      8.30473      2.13381      6.35602        -0.018163     -0.051655      0.001386
O	      2.09773      2.17896      2.27054         0.050939      0.006709      0.028289
O	      4.10170      4.21582      2.09684         0.023648     -0.044222     -0.107628
O	      4.08968      2.14984      4.22282        -0.054027     -0.018807     -0.035822
O	      6.24480      4.35707      4.27960         0.035577      0.015624     -0.028774
O	      6.29212      2.05569      6.35145        -0.021554     -0.044158     -0.021859
O	      8.43511      4.23525      6.47250         0.049021      0.049703      0.053822
O	      2.01428      4.22128      4.19786        -0.082544      0.096450     -0.026874
O	      4.16214      6.47152      4.32566        -0.040764      0.056500      0.009274
O	      4.18736      4.24704      6.55272         0.007474     -0.007977      0.509080
O	      6.29303      6.35208      6.48878         0.015593      0.076531      0.420616
O	      6.28414      4.33218      8.57037        -0.083115      0.080393      0.085057
O	      8.32402      6.40702      8.59270        -0.090861      0.011638     -0.024812
O	      2.00060      6.36750      6.29078         0.002187     -0.009513     -0.070841
O	      4.13573      8.60962      6.34217         0.015468     -0.033285     -0.034921
O	      4.26138      6.34538      8.48995         0.125874     -0.175728     -0.032343
O	      6.30860      8.40095      8.53284         0.188221     -0.061636     -0.053613
O	      6.38658      6.28574     10.56456        -0.015377     -0.050389     -0.006606
O	      8.47167      8.45071     10.45022         0.087534     -0.003148     -0.139680
