# total energy = -138.24073844 eV
 
CRYSTAL
PRIMVEC
0.000027 0.000002 -4.052788 
-2.042243 -2.026474 0.000002 
-4.083859 -0.000095 0.000027 
PRIMCOORD
24 1
Li	     -1.02175     -5.38898     -1.01263         0.000724      0.013055     -0.001138
Li	     -3.06310     -0.92535     -3.03904        -0.000960      0.019779      0.000946
Li	     -3.06319     -9.73042     -3.03957        -0.003607     -0.073291      0.001572
Li	     -1.02159     -3.18390     -3.03898         0.004228      0.062536      0.000147
Li	     -5.10540    -11.74156     -3.03954         0.002147     -0.003203      0.003037
Li	     -3.06343     -7.58414     -5.06536        -0.000201     -0.037837     -0.001615
Mn	     -3.06360     -5.36411     -3.03912        -0.000354     -0.105395     -0.000330
Mn	     -5.10511     -9.64802     -5.06575        -0.001274     -0.073278     -0.001619
Mn	     -3.06343     -3.17428     -1.01218        -0.000416      0.214955     -0.005412
Ni	     -1.02165     -1.05237     -1.01270         0.003025      0.133949     -0.001752
Ni	     -3.06313    -11.77599     -5.06559        -0.001402     -0.172057     -0.002010
Ni	     -5.10554     -7.49775     -3.03934         0.000820     -0.042469      0.005165
O	     -3.06351    -11.93673     -3.03951         0.001820      0.279650      0.004942
O	     -5.10521     -7.71921     -5.06521        -0.000848     -0.088986     -0.006954
O	     -3.06354     -3.38933     -3.03916         0.002533     -0.126728      0.004950
O	     -1.02129     -5.43410     -3.03923        -0.006832      0.187260      0.001957
O	     -3.06340     -1.28080     -1.01253         0.001405     -0.157470      0.001209
O	     -3.06334     -9.77898     -5.06564         0.001127      0.326584     -0.002890
O	     -1.02136     -3.05511     -1.01267        -0.003093     -0.218433      0.000927
O	     -5.10517    -11.57798     -5.06550        -0.001533      0.207143     -0.003604
O	     -3.06359     -7.25728     -3.03900        -0.000001      0.147892     -0.002225
O	     -1.02130     -0.89375     -3.03909        -0.001486     -0.315498     -0.002157
O	     -5.10522     -9.54441     -3.03977         0.000230     -0.210910      0.005949
O	     -3.06366     -5.15037     -1.01250         0.003949      0.032751      0.000904
