# total energy = -252.66055754 eV
 
CRYSTAL
PRIMVEC
0.006699 6.286852 6.342432 
6.339183 0.006621 6.342656 
4.231457 4.196680 -0.000921 
PRIMCOORD
36 1
Li	      0.05216      6.30535      6.34730         0.049738     -0.007405      0.011360
Li	      2.10574      8.31072      6.34852         0.001076     -0.034376     -0.001504
Li	      2.16589      6.27946      8.39820         0.004610     -0.000622     -0.045446
Li	      8.41820      4.25270      4.32188        -0.025249      0.038419      0.080021
Li	      2.20109      2.03898      4.25336         0.059142     -0.026094     -0.004655
Li	      4.26231      4.12217      4.28022         0.037329     -0.041435      0.011381
Li	      8.38805      6.26128      6.25911        -0.027479      0.000223      0.000478
Li	      2.14404      6.26814      4.31797        -0.017599      0.007423     -0.034281
Li	      6.29134      6.36487      8.37845         0.000607     -0.013958     -0.018992
Sc	      6.32193      2.08206      4.29145         0.079681      0.023377     -0.042085
Ti	      4.26514      6.15947      2.12979        -0.123473     -0.085662      0.071925
Ti	      6.28859      4.33310     10.64196        -0.041176      0.223308      0.018022
V	      4.22971      8.34531      8.46836        -0.014728      0.025994      0.152185
V	      8.44894      4.23878      8.44342        -0.024074      0.031202      0.055863
V	      6.37673      4.23679      6.28971         0.002737      0.104626     -0.036713
V	      8.44336      8.41569      8.47213        -0.143044      0.016315      0.011854
Cr	      4.20360      6.28868      6.26329        -0.094877      0.031016     -0.025870
Fe	      2.13925      4.19101      6.27225         0.080112     -0.012791     -0.003796
O	      2.09120      2.17440      2.12347        -0.047623     -0.032372      0.000745
O	      4.21717      4.23357      2.12027         0.067621      0.183746      0.019154
O	      4.29805      2.08895      4.17357        -0.082433     -0.004527     -0.068434
O	      6.38053      4.14347      4.35029        -0.000142     -0.032913      0.074951
O	      6.37066      2.11298      6.47394         0.028096     -0.061731      0.111921
O	      8.34628      4.24525      6.48724         0.093528     -0.040175      0.003324
O	      1.94603      4.20792      4.10894        -0.095739      0.003485     -0.055896
O	      4.23169      6.39318      4.13320         0.032155     -0.008705     -0.088829
O	      4.33014      4.29641      6.34972         0.001733     -0.037763     -0.015778
O	      6.25069      6.33267      6.31605         0.016179     -0.098688      0.000002
O	      6.34815      4.12475      8.48743         0.009816     -0.047196      0.035577
O	      8.64179      6.26581      8.46514         0.149722     -0.045384      0.000629
O	      2.21946      6.19785      6.32009         0.015436      0.110151     -0.033922
O	      4.17454      8.34292      6.25381        -0.012585      0.000551     -0.162956
O	      4.20941      6.38470      8.28893        -0.018266      0.010078     -0.084663
O	      6.27591      8.37455      8.51716        -0.054767      0.046608      0.083127
O	      6.32736      6.19632     10.58781        -0.011758     -0.235675      0.002452
O	      8.53878      8.39444     10.58087         0.105695      0.010948     -0.021153
