# total energy = -247.79831932 eV
 
CRYSTAL
PRIMVEC
0.006524 6.243630 6.335813 
6.346541 0.008077 6.334623 
4.227864 4.158628 0.008449 
PRIMCOORD
36 1
Li	      2.14099      2.04313      0.20707        -0.017831     -0.008544     -0.143233
Li	      2.24145      6.41185      8.37569        -0.029053     -0.126647     -0.009935
Li	      4.01838      1.98858      2.08931         0.037864      0.012844      0.016213
Li	      6.34550      8.33313     10.48600        -0.028740     -0.004076     -0.046903
Li	      2.14888      3.98379      2.09763         0.004840      0.054376     -0.028006
Li	      2.13852      2.05574      4.00419         0.020335     -0.032294      0.037873
Li	      4.20717      6.27001      6.53064         0.002084      0.021379      0.053417
Li	      4.21501      4.25516      8.46579        -0.019082     -0.001257      0.030726
Li	      6.24428      6.27370      8.47047        -0.032711      0.050886      0.036015
Sc	      4.27620      4.10729      4.06516         0.070976     -0.037744      0.007578
Ti	      6.38735      4.22981      6.43341        -0.003255     -0.000172      0.096903
Ti	      6.34426      8.28520      6.52677        -0.002720     -0.023416      0.794543
V	      4.19504      6.26768     10.44854         0.017142     -0.011494     -0.025695
V	      8.41305      6.25533      6.42418        -0.029829      0.024853      0.013133
V	      0.04683      4.12050      4.18048        -0.039291      0.052898     -0.046371
V	      8.44759      6.31946     10.45824         0.004857      0.030271      0.016013
Cr	      4.24490      4.15773      0.06360        -0.056538      0.039258     -0.027020
Ni	      0.09056      2.07037      2.09160         0.002556     -0.034118      0.037493
O	      2.07820      2.07510      2.10264        -0.012094     -0.015242     -0.037684
O	      4.23770      4.15342      2.04883        -0.033937     -0.080376     -0.048105
O	      4.22122      2.05055      4.27970        -0.027759      0.075739     -0.044804
O	      6.33203      4.14629      4.41225        -0.032327      0.007889      0.107174
O	      6.27430      2.10164      6.36092         0.047942      0.036633     -0.222483
O	      8.44656      4.18018      6.27095        -0.049688     -0.082441      0.067115
O	      2.10275      4.23260      4.28120         0.060768     -0.009781      0.036286
O	      4.19225      6.28392      4.19669        -0.001821     -0.045303      0.149858
O	      4.24359      4.17480      6.28996         0.032435      0.097998      0.015847
O	      6.32566      6.24225      6.38140        -0.082125     -0.032715      0.018270
O	      6.37125      4.18249      8.33703         0.000790      0.085352     -0.159741
O	      8.51555      6.26672      8.52532         0.049084     -0.010557     -0.007689
O	      2.02068      6.14670      6.22820         0.033678     -0.075330      0.030541
O	      4.36744      8.38050      6.28524         0.087553     -0.000498      0.025571
O	      4.22727      6.24498      8.56214        -0.002907      0.027131     -0.031027
O	      6.38651      8.32331      8.31779        -0.002267      0.002721     -0.728265
O	      6.34109      6.18237     10.65676         0.022456      0.025855      0.024255
O	      8.59179      8.33560     10.58222         0.008611     -0.014079     -0.007866
