# total energy = -254.47067687 eV
 
CRYSTAL
PRIMVEC
0.033587 6.444321 6.325212 
6.333632 -0.001494 6.360446 
4.202324 4.299682 0.018920 
PRIMCOORD
36 1
Li	      4.25729     10.63393      6.34898         0.010715     -0.053590      0.030041
Li	      6.39666     10.54520      8.47734         0.015853      0.016374      0.010583
Li	      4.44852      8.53740      8.42985        -0.027768     -0.000744     -0.003589
Li	      6.23277      2.23744      4.13063         0.065193      0.077415     -0.020031
Li	      4.32748      4.27833      4.26032         0.021436      0.030520     -0.009439
Li	      6.28160      4.37346      6.28868        -0.008338      0.047818     -0.050748
Li	      6.28951      8.60047      6.50347        -0.018394     -0.033983     -0.033524
Li	      4.29821      6.43332      6.46248         0.006708      0.035237      0.003168
Li	      6.21292      6.59897      8.39965         0.048926      0.029082      0.004567
Sc	      4.22273      2.20842      6.28467        -0.091067      0.094056     -0.050357
Ti	      2.13373      8.46600      6.38495         0.085205     -0.478006     -0.097512
Ti	      4.27019      6.33471      2.07960        -0.052388     -0.274574      0.012105
V	      4.28106      6.48322     10.50795        -0.072173     -0.336792     -0.057875
V	      6.32252      6.41605      4.27412         0.092004     -0.003126      0.156734
V	      2.08070      6.43103      4.27863         0.006806      0.149245     -0.135558
V	      4.15632      4.34857      8.38222         0.072832     -0.228921      0.547577
Cr	      8.41987      4.31421      8.43334         0.102807      0.002953      0.117081
Cr	      4.21591      8.59181      4.28047        -0.023901      0.013090     -0.003682
O	      2.09711      2.28195      2.09700        -0.041336      0.104895     -0.042387
O	      4.10147      4.45226      2.16272        -0.056591      0.270427     -0.064367
O	      4.21391      2.13041      4.23105         0.022230     -0.019866      0.047870
O	      6.42698      4.45491      4.22558         0.003979      0.079481      0.015018
O	      6.38553      2.19129      6.40752         0.026374      0.013049      0.071319
O	      8.41611      4.26538      6.39003        -0.027066      0.039888      0.034756
O	      2.02426      4.26652      4.09895        -0.024949     -0.103375     -0.058733
O	      4.24044      6.53652      4.16915        -0.014928      0.019989     -0.041480
O	      4.26803      4.25620      6.44425        -0.004434      0.056205     -0.209755
O	      6.36297      6.49331      6.24810         0.053649     -0.030653     -0.092401
O	      6.35458      4.14481      8.55163        -0.005997      0.034376      0.031819
O	      8.49572      6.36746      8.46445        -0.060860     -0.071210     -0.115759
O	      2.08965      6.59530      6.38642         0.048045      0.359182      0.101890
O	      4.10766      8.59801      6.28747        -0.109679     -0.016602     -0.038776
O	      4.26926      6.36598      8.55690         0.006422      0.177371     -0.196695
O	      6.45574      8.58411      8.50130         0.000947     -0.018670     -0.045317
O	      6.28627      6.28643     10.59564        -0.032252     -0.059740      0.038840
O	      8.51152      8.60294     10.61481        -0.018012      0.079199      0.144615
