# total energy = -248.47309437 eV
 
CRYSTAL
PRIMVEC
0.033531 6.361077 6.446335 
6.296039 -0.003137 6.482736 
4.183575 4.251338 0.011797 
PRIMCOORD
36 1
Li	      0.11894      6.27751      6.44733         0.005768      0.008085     -0.036463
Li	      2.18655      8.45366      6.51976         0.009636     -0.022671     -0.015727
Li	      2.09045      6.39532      8.48718         0.001418      0.021120     -0.055310
Li	      8.38047      4.19786      4.40211         0.049219      0.019937      0.028702
Li	      2.09842      4.20956      2.22089        -0.000775     -0.006675     -0.007623
Li	      2.02950      2.22892      4.27115        -0.007270      0.039225     -0.011158
Li	      0.18423      4.26449      4.39473        -0.029100      0.018563      0.017478
Li	      2.04566      4.31261      6.30568         0.015592      0.019238     -0.042474
Li	      6.34918      6.33320      8.64605         0.022857     -0.003184      0.044938
Sc	      4.09133      2.11675      2.11729        -0.045171     -0.029973     -0.068953
Ti	      6.30438      8.34194     10.80075         0.017545     -0.515116      0.095005
Ti	      8.40579      8.57579      8.72120         0.160020     -0.064068      0.293576
V	      6.36632      4.25416      6.46404        -0.028788      0.011618      0.051325
V	      4.15985      4.28332      4.23179        -0.206353      0.053290     -0.041240
V	      8.32209      6.32135      6.48480        -0.027391      0.009315     -0.007011
V	      4.18700      6.43011      6.42524        -0.193013     -0.000314     -0.157180
Fe	      0.11476      2.09556      2.16354        -0.139828      0.007293      0.056426
Co	      2.10182      6.32573      4.36089         0.213513      0.005992     -0.080002
O	      2.10546      2.11410      2.15799         0.177233      0.004716     -0.016433
O	      4.22517      4.18645      2.24270        -0.017338     -0.033643      0.068541
O	      4.27503      2.11958      4.31338         0.011867      0.028035      0.053054
O	      6.19401      4.07989      4.47963         0.018434      0.049403     -0.023209
O	      6.21380      2.13897      6.36716         0.024237      0.020607     -0.029803
O	      8.29770      4.35336      6.50485         0.038569      0.001046     -0.000839
O	      2.21067      4.28470      4.28425         0.040431      0.234525      0.106398
O	      4.21147      6.34027      4.35197         0.158081     -0.014665      0.020143
O	      4.25251      4.23849      6.47891        -0.063346     -0.062462      0.043898
O	      6.31596      6.33729      6.45502        -0.004805      0.019689      0.013809
O	      6.14278      4.28625      8.51602        -0.108399      0.042411      0.020351
O	      8.44062      6.55197      8.57331        -0.067306      0.000616      0.060087
O	      2.24633      6.37295      6.40080        -0.033016     -0.153509     -0.327340
O	      4.25600      8.40033      6.51189         0.024406      0.096394      0.035117
O	      4.19419      6.27076      8.55484        -0.010002     -0.124396     -0.006660
O	      6.37711      8.46994      8.81127         0.028470      0.042175     -0.003676
O	      6.30049      6.48005     10.81697        -0.074173      0.339669      0.046695
O	      8.31060      8.51731     10.63067         0.038773     -0.062288     -0.124440
