# total energy = -245.89382253 eV
 
CRYSTAL
PRIMVEC
-0.006297 6.410247 6.246442 
6.359869 0.007652 6.232539 
4.259600 4.283836 -0.014432 
PRIMCOORD
36 1
Li	      6.28256      6.46131     12.34400         0.014224     -0.045300     -0.032373
Li	      8.51574      4.31648      4.27097         0.011615      0.084568      0.020810
Li	      6.36018      2.13384      4.25854        -0.078939     -0.041558     -0.002826
Li	      6.44023      6.39859      4.19313         0.000456     -0.005629      0.025521
Li	      8.57098      6.25499      6.19526         0.002310     -0.089909      0.008445
Li	      6.41990      4.26937      6.13944         0.047654      0.038311      0.053717
Li	      6.34044      4.37204     10.40077         0.097676      0.063516     -0.075797
Li	      2.08417      6.39757      4.20689        -0.072154     -0.095543     -0.073698
Li	      2.08258      4.28048      6.16210        -0.024792      0.003913     -0.024070
Sc	      6.40612     10.60915      8.35302        -0.231012      0.069385      0.096129
Ti	      4.22617      4.09412      4.30032        -0.153366     -0.334709     -0.264478
Ti	      4.29311      6.54241      6.08569         0.285516      0.109240     -0.185531
V	      8.46969      8.57120     12.33228        -0.120266      1.016059      0.814412
V	      6.31912      2.22362      8.28374        -0.038000     -0.100565      0.100271
V	      2.14600      4.26239      2.05154         0.170335     -0.469608     -0.320185
V	      6.36964      6.49142      8.38137         0.088526     -0.262587      0.049421
Fe	      8.51974      8.52104      8.39222         0.072555      0.005063     -0.133297
Cu	      4.26765      2.14901      2.15910         0.046323     -0.001659      0.173987
O	      2.02762      2.13824      1.99748         0.133943     -0.191470     -0.061441
O	      4.23432      4.46535      2.16683         0.311096      0.143977      0.026304
O	      4.21596      2.23951      4.26839         0.003251      0.341484      0.011195
O	      6.20716      4.28216      4.12083        -0.033961     -0.016204     -0.032501
O	      6.42342      2.14353      6.33276         0.318810     -0.103440     -0.038965
O	      8.54842      4.19113      6.29452        -0.079864     -0.167199     -0.614755
O	      2.29487      4.27127      4.06806         0.111208      0.079548      0.233713
O	      4.26312      6.38956      4.17986        -0.008341      0.009303      0.343042
O	      4.21814      4.43064      6.17031        -0.010770      0.070006     -0.012984
O	      6.19610      6.42482      6.38879        -0.190160      0.064126     -0.111084
O	      6.46330      4.29575      8.33971        -0.490106     -0.035050     -0.012881
O	      8.40723      6.37508      8.24195        -0.037428     -0.111694      0.068460
O	      2.25109      6.49200      6.26671         0.040151      0.086402     -0.186158
O	      4.21440      8.46261      6.13968        -0.226587     -0.354741      0.058494
O	      4.26751      6.35924      8.23051         0.051598      0.050688     -0.093559
O	      6.39715      8.48937      8.26881        -0.030057      0.085848     -0.024889
O	      6.32716      6.42152     10.17539         0.014418      0.055593      0.091117
O	      8.45576      8.55999     10.42621         0.004140      0.049836      0.126434
