# total energy = -249.38699447 eV
 
CRYSTAL
PRIMVEC
0.005763 6.392750 6.299702 
6.280338 0.009127 6.296305 
4.198070 4.270517 -0.004854 
PRIMCOORD
36 1
Li	      0.01818      6.38276      6.30195         0.006068     -0.042157      0.007414
Li	      6.25228      4.24012      2.16422        -0.010428      0.018409     -0.018180
Li	      4.13785      2.30962      2.10893        -0.023902      0.058720     -0.031219
Li	      6.27555      8.51618     10.44506        -0.030562     -0.021044     -0.043976
Li	      2.17873      4.18059      2.22716         0.024693     -0.026765      0.065045
Li	      2.16322      2.15717      4.17677        -0.024074      0.038774     -0.011872
Li	      6.26943      4.25760      6.23946         0.009071     -0.039092      0.012569
Li	      6.36160      4.36918     10.46571         0.024239     -0.010029      0.005208
Li	      8.20580      6.33288     10.53541        -0.099136     -0.022078     -0.038660
Sc	      4.25569      6.32540      2.22055         0.173118     -0.063780     -0.005438
Ti	      8.45965      6.22558      6.25946         0.158683     -0.348443     -0.156022
Ti	      4.23699      6.45563      6.24885        -0.058232      0.283098     -0.157250
V	      8.35469      8.53321     12.56023        -0.010738      0.046532      0.167587
V	      4.13901      0.04367      4.15668         0.056215     -0.005185      0.005427
V	      2.06017      4.32278      6.25334         0.016904      0.050981     -0.120528
V	      8.37880      8.52118      8.46221        -0.006689      0.088774      0.008952
Fe	      4.30360      4.25053      4.15620        -0.047652     -0.005172     -0.056168
Fe	      6.29794      6.33948      8.47022        -0.016792     -0.046768     -0.105722
O	      2.07644      2.19972      1.90804        -0.051174     -0.025604     -0.069349
O	      4.21925      4.30597      2.06906        -0.008849      0.142556     -0.106724
O	      4.17619      2.08462      4.31829         0.050694     -0.158045      0.297687
O	      6.33208      4.29225      4.19441         0.160279     -0.000314      0.028270
O	      6.17432      2.12659      6.32408        -0.324918     -0.023905      0.003256
O	      8.33829      4.31651      6.25287         0.027031      0.376939      0.038016
O	      2.20113      4.29514      4.31068        -0.071952     -0.006959      0.139214
O	      4.26029      6.42125      4.33015         0.014435      0.079021      0.324377
O	      4.15043      4.29791      6.38173         0.016886      0.040212      0.063169
O	      6.29874      6.47096      6.28742        -0.010187      0.046105     -0.114332
O	      6.17179      4.24226      8.42791        -0.058293     -0.054671     -0.077668
O	      8.41792      6.42717      8.25527         0.102505      0.057681     -0.109509
O	      2.24024      6.48579      6.23433         0.174314     -0.092753      0.051819
O	      4.21148      8.40445      6.29661        -0.019361     -0.314639     -0.010362
O	      4.15271      6.34838      8.32070        -0.076498     -0.125582     -0.214996
O	      6.37176      8.46118      8.26452         0.028045      0.017837      0.011350
O	      6.15347      6.38404     10.52215        -0.110411      0.040659      0.220180
O	      8.32033      8.64010     10.49253         0.016667      0.046688     -0.001564
