# total energy = -243.25382376 eV
 
CRYSTAL
PRIMVEC
0.004048 6.356303 6.271305 
6.275455 0.009463 6.265964 
4.196658 4.246993 -0.006721 
PRIMCOORD
36 1
Li	      4.21580     10.45765      6.30805         0.021524     -0.045806      0.007640
Li	      6.26018     10.45984      8.32373         0.025142      0.042515      0.016646
Li	      4.40891      8.50534      8.27726        -0.004848      0.029845      0.059675
Li	      6.24120      2.20113      4.10956         0.044898      0.014454      0.044077
Li	      4.12928      2.17492      6.23530        -0.015842      0.045228      0.022971
Li	      6.26348      4.27349      6.22132        -0.001649     -0.007886      0.000835
Li	      4.17201      8.50347      4.26924         0.027255     -0.017200     -0.006753
Li	      6.22228      8.47308      6.41659         0.019300      0.011866     -0.046406
Li	      6.23343      6.50220      8.27734         0.054176      0.032634     -0.012507
Sc	      8.27330      6.35719     10.52041        -0.081757      0.002081      0.061388
Ti	      4.26975      6.44489     10.43370         0.152553      0.119806     -0.050297
Ti	      6.29080      2.09723      8.17333         0.048370     -0.059795     -0.562836
V	      8.32750      4.25711      8.24891         0.023510     -0.008672      0.021513
V	      6.29521      6.35460      4.21861        -0.000963      0.046972     -0.049890
V	      4.21403      6.42925      6.32391         0.016918     -0.019616     -0.010146
V	      8.30130      8.49793      8.31587         0.010949     -0.001135     -0.022767
Ni	      2.15770      8.46981      6.25696        -0.070469     -0.001458      0.022156
Ni	      4.24977      4.19195      4.22936         0.004374     -0.084801     -0.009360
O	      1.97847      2.16942      2.13271        -0.163568      0.000682      0.067129
O	      4.09987      4.35949      2.13676        -0.023715      0.127509     -0.111047
O	      4.18641      2.03392      4.19872        -0.004643     -0.200560     -0.032531
O	      6.37551      4.35662      4.17188         0.121504     -0.010321      0.001151
O	      6.32681      2.11132      6.35688        -0.117993      0.008507      0.556457
O	      8.38438      4.20022      6.22664        -0.046850      0.111249     -0.090711
O	      2.12185      4.20806      4.04331        -0.078421      0.000369      0.006148
O	      4.17191      6.29715      4.18054        -0.028923      0.106400     -0.080815
O	      4.21676      4.35979      6.31973        -0.003608      0.013962      0.064518
O	      6.21308      6.41393      6.16295        -0.010835     -0.031457      0.060966
O	      6.29815      4.09652      8.36156        -0.035153     -0.129582     -0.034085
O	      8.45890      6.36194      8.35018         0.065021     -0.015005      0.024515
O	      2.15095      6.40242      6.26335         0.020568     -0.156846     -0.043472
O	      4.17126      8.39978      6.30622         0.112316     -0.030076     -0.004579
O	      4.22396      6.32752      8.46958         0.003115      0.038405      0.151983
O	      6.39913      8.47968      8.36906         0.054526      0.029373      0.046181
O	      6.18784      6.34716     10.47798        -0.144932      0.007685     -0.019618
O	      8.38285      8.53675     10.39492         0.008153      0.030677     -0.048127
