# total energy = -92.55543510 eV
 
CRYSTAL
PRIMVEC
-4.048792 0.000000 -0.000011 
2.024378 -4.304517 -6.151258 
-2.024394 -4.275608 2.031261 
PRIMCOORD
16 1
Li	     -1.01325     -5.23944     -5.07819        -0.000066      0.034209      0.004975
Li	     -1.01285     -5.53916     -1.10896        -0.001127     -0.025590     -0.001720
Li	     -5.06249     -3.02935      1.07886         0.000667      0.026112      0.004017
Li	     -1.01334     -3.35729     -3.13317         0.000658     -0.034541     -0.006715
Mn	     -1.01315     -1.04162     -1.01470        -0.001126      0.178279      0.008745
Mn	     -3.03764     -3.25075     -1.04632         0.001033     -0.178478     -0.008412
Ni	     -3.03775     -5.38157     -3.09563         0.001073      0.048123      0.002691
Ni	     -1.01336     -7.49214     -3.08491        -0.000627     -0.047947     -0.004209
O	     -3.03772     -3.36589     -2.97610         0.000577      0.137701      0.153522
O	     -3.03791     -3.39242      0.92307         0.001916      0.030752     -0.133297
O	     -3.03764     -1.28010     -1.03606         0.000223     -0.128153     -0.012769
O	     -1.01338     -5.51427     -3.08881         0.002462      0.142775      0.007770
O	     -3.03774     -7.35992     -3.09175        -0.003178     -0.137776     -0.008394
O	     -1.01310     -3.01214     -1.02522        -0.002447      0.125158      0.012410
O	      1.01119     -5.23172     -5.23591         0.000175     -0.138740     -0.154330
O	     -3.03735     -5.17553     -0.95287        -0.000213     -0.031883      0.135717
