# total energy = -251.70513972 eV
 
CRYSTAL
PRIMVEC
0.054432 6.312766 6.284978 
6.354084 0.020652 6.319030 
4.249771 4.244977 0.000176 
PRIMCOORD
36 1
Li	      8.54386      8.46935     12.51636         0.047279      0.016978     -0.037233
Li	      6.51977      8.42530     10.50527         0.011199      0.017582     -0.079692
Li	      6.32045      2.21674      8.42069        -0.002416     -0.006003      0.001240
Li	      8.38156      4.32509      8.43059         0.005356     -0.032938      0.016923
Li	      4.24427      4.26662      4.23674         0.040373     -0.010122     -0.043787
Li	      6.31579      4.23503     10.38233        -0.034706     -0.009571     -0.083066
Li	      4.27214      6.27027      6.31032        -0.001991     -0.060084      0.040675
Li	      8.58483      8.42754      8.43699        -0.005049     -0.021979      0.021067
Li	      6.48162      6.21815      8.42903        -0.012811     -0.017770      0.000745
Sc	      4.32590      8.43114      8.39756        -0.019566      0.033135      0.251985
Ti	      6.47772      6.38239     12.56140         0.013940      0.159899     -0.107915
Ti	      6.20711      6.48566      4.23983        -0.220343      0.033983     -0.144366
V	      8.55421      6.38035     10.43919        -0.018402      0.084873     -0.074367
V	      6.42742     10.55486      8.39873         0.010813      0.211250      0.026304
V	      8.57415     10.45512     10.48227        -0.003261     -0.005049     -0.035952
V	      8.49443      6.37071      6.40913         0.050488     -0.132382      0.016765
V	      6.34644      4.18681      6.40370         0.012648     -0.022248     -0.081161
Co	      2.18382      4.18816      6.29510         0.158300      0.189813      0.003128
O	      2.16417      2.03903      2.26809        -0.023899      0.047811      0.100908
O	      4.34845      4.22337      2.01421        -0.060409     -0.024717     -0.096897
O	      4.15148      2.01876      4.25635        -0.048290      0.061771     -0.052144
O	      6.45217      4.32431      4.24188        -0.034881      0.074593      0.002489
O	      6.32908      2.04621      6.32579         0.102235     -0.166619      0.014044
O	      8.51015      4.29600      6.28351         0.103402     -0.062139      0.024250
O	      2.16556      4.15111      4.26084        -0.102485     -0.353560     -0.345902
O	      4.35158      6.35424      4.22638         0.321196      0.030365      0.025310
O	      4.34016      4.09379      6.24783         0.008825      0.244686      0.021324
O	      6.40029      6.30477      6.22488        -0.149305     -0.081165     -0.086712
O	      6.41214      4.23062      8.27865        -0.074873     -0.031733      0.140163
O	      8.49247      6.33707      8.35343         0.005508      0.001992     -0.037866
O	      2.07032      6.38359      6.28795        -0.014867     -0.084691      0.067115
O	      4.29841      8.63267      6.32830        -0.019912      0.090959      0.027885
O	      4.18001      6.35946      8.40647         0.035713      0.010990     -0.037758
O	      6.39182      8.57651      8.30462        -0.143922     -0.203905      0.383992
O	      6.36065      6.35973     10.58653         0.018999     -0.034713      0.180819
O	      8.52513      8.51332     10.49648         0.045114      0.050708     -0.022310
