# total energy = -254.78548988 eV
 
CRYSTAL
PRIMVEC
-0.038144 6.400341 6.307635 
6.341852 -0.039924 6.309685 
4.197083 4.237814 0.003922 
PRIMCOORD
36 1
Li	      8.38903      8.45805     12.51585        -0.009152      0.010621     -0.096430
Li	      4.31545      6.28857     10.52833         0.021236     -0.130179      0.079681
Li	      6.34210      8.41884     10.54721         0.080727     -0.004428      0.008428
Li	      8.39778      4.34909      8.39309         0.004785      0.120543      0.031680
Li	      8.39582      6.30823      6.38844         0.000513     -0.056940      0.072512
Li	      8.36888      6.41778     10.55476        -0.017161      0.104648     -0.069648
Li	      6.26198      8.41076      6.34365        -0.060375     -0.037401     -0.021806
Li	      4.20498      6.40150      6.29059         0.000881      0.018970     -0.068606
Li	      6.38211      6.39710      8.37788         0.205700     -0.046985      0.007101
Sc	      6.46344      4.27767      6.32075         0.149833      0.063208     -0.082045
Ti	      4.18588      8.35505      8.34081         0.025388      0.043450      0.017839
Ti	      4.05724      4.20820      4.35390        -0.116400     -0.140629      0.125372
V	      6.26373      6.38798     12.54879        -0.075676      0.042635     -0.013179
V	      6.22084     10.59862      8.36111         0.195141      0.064625      0.077416
V	     10.44747      6.33986      8.38763        -0.059224     -0.022772      0.084736
V	      2.15426      2.13693      4.22284         0.051750     -0.027826      0.104387
V	      4.16590      4.26011      8.38642        -0.154705      0.006298      0.049777
Cr	     10.49217      8.49302     10.53725        -0.153669      0.138659      0.082109
O	      2.14866      2.01646      2.10534        -0.011158     -0.070783     -0.007502
O	      4.17207      4.18110      2.11962        -0.072598      0.161191      0.006051
O	      4.23908      2.22612      4.06122        -0.164247      0.357114     -0.086904
O	      6.17100      4.25811      4.16524        -0.198238     -0.023270      0.098352
O	      6.34788      2.10018      6.39392         0.013571     -0.080113     -0.025302
O	      8.47858      4.23595      6.31200         0.073815      0.044654     -0.033910
O	      2.09857      4.23884      4.20536         0.273604     -0.044563      0.090985
O	      4.21052      6.32932      4.14846         0.068929     -0.078221      0.024028
O	      4.20328      4.23999      6.22525        -0.030323      0.020045     -0.549201
O	      6.32228      6.30001      6.30392        -0.047353     -0.049629      0.081380
O	      6.33749      4.20193      8.48471        -0.113337     -0.133419     -0.007520
O	      8.52918      6.43050      8.41785         0.073866     -0.103661     -0.021680
O	      1.95115      6.39259      6.43152        -0.133999     -0.037053      0.017027
O	      4.15505      8.52866      6.36835        -0.001966     -0.034220     -0.100176
O	      4.15447      6.48757      8.39892        -0.182522      0.031450      0.005210
O	      6.14698      8.55634      8.43125         0.109722      0.034796     -0.091111
O	      6.33292      6.24148     10.61590        -0.003656     -0.109085      0.042162
O	      8.51569      8.49584     10.44817         0.256299     -0.031728      0.168786
