# total energy = -249.35307983 eV
 
CRYSTAL
PRIMVEC
0.029064 6.255805 6.436788 
6.290029 0.029699 6.436802 
4.203918 4.181195 0.008889 
PRIMCOORD
36 1
Li	      2.17538      8.31731      6.49500         0.023991      0.016537      0.038187
Li	      4.16844      2.07015      2.21903         0.052067      0.006289      0.015263
Li	      4.25397      6.28195      2.29912         0.000961      0.023977      0.107634
Li	      2.03988      2.11232      4.19768        -0.021840     -0.049960     -0.000606
Li	      4.20372      4.18913      4.28386         0.020914     -0.012917     -0.005255
Li	      4.18988      2.12362      6.33601        -0.062572      0.015048     -0.140194
Li	      4.23455      8.25422      4.30495        -0.033435      0.020233      0.004031
Li	      4.21204      6.32963      6.34463         0.011326     -0.010523     -0.019517
Li	      6.30888      6.28460      8.59153        -0.043030     -0.011154     -0.019972
Sc	      6.23894      4.17960      6.42163         0.024539      0.068936     -0.079515
Ti	     10.44143      4.26243      6.51293        -0.037538     -0.040089      0.117183
Ti	      6.30390      8.21053      6.34062        -0.081094     -0.306691      0.008227
V	      2.22390      6.29546      4.32537         0.093704     -0.013827     -0.014130
V	      2.09571      0.12103      2.13290         0.019925     -0.124862      0.106523
V	      4.27286      6.32677     10.71404        -0.126315      0.015777     -0.060168
V	      2.10897      4.14057      2.20359        -0.056850      0.039017      0.023137
V	      8.43783      8.33454      8.59043         0.051777     -0.021027     -0.095043
Ni	      6.26902      2.11386      4.27011         0.022270      0.059048     -0.129586
O	      2.10641      2.04495      2.12442         0.031384     -0.009452     -0.007479
O	      4.25142      4.19121      2.01648         0.058042      0.030024     -0.134167
O	      4.26520      2.00641      4.26380        -0.073520      0.014082      0.042371
O	      6.38783      4.18561      4.28616        -0.190244      0.077738     -0.062880
O	      6.28218      2.04041      6.38816        -0.008563     -0.115117      0.057044
O	      8.44148      4.18532      6.45599         0.225633      0.030113     -0.218702
O	      2.13941      4.18300      4.40702        -0.022541     -0.013764      0.117368
O	      4.11755      6.27497      4.34098        -0.043514     -0.016617      0.006240
O	      4.14686      4.16864      6.47367        -0.050727     -0.032071      0.014073
O	      6.29429      6.34814      6.44624        -0.006534      0.258370     -0.015073
O	      6.25710      4.21454      8.48711        -0.058274     -0.032043     -0.005444
O	      8.36677      6.33025      8.77365        -0.030233     -0.011501      0.005920
O	      2.03125      6.22146      6.41397        -0.105937      0.031930      0.057072
O	      4.37716      8.48208      6.44935         0.107671      0.073466      0.010106
O	      4.14383      6.19242      8.65212         0.017292      0.085722      0.138929
O	      6.39517      8.44239      8.46814         0.036297      0.039319     -0.092413
O	      6.32517      6.28966     10.86790         0.210318     -0.039725      0.170249
O	      8.39862      8.42679     10.68010         0.044650     -0.044289      0.060587
