# total energy = -225.64140824 eV
 
CRYSTAL
PRIMVEC
-0.000925 6.265315 6.340524 
6.296825 -0.005426 6.344747 
4.197507 4.179326 -0.002850 
PRIMCOORD
36 1
Li	      8.34753      2.11140      6.30511        -0.036874      0.051543     -0.163432
Li	      1.99641      4.14256      2.22441        -0.034195      0.041539      0.048896
Li	      6.19429      6.32169      4.18644        -0.002387     -0.065561      0.035542
Li	      4.18038      4.24795      4.22668         0.077110     -0.048515      0.024131
Li	      6.30494      4.15437      6.42660         0.077964      0.012207     -0.003970
Li	      6.29534      4.07940     10.41611        -0.065120      0.039326      0.028681
Li	      8.47760      6.32341     10.46015        -0.032379      0.114202     -0.054851
Li	      4.33520      4.14055      8.53628         0.088416     -0.026487      0.126585
Li	      6.26016      6.20722      8.53376        -0.003892     -0.017131      0.085805
Sc	      6.32133      4.17665      2.19352         0.140779      0.045519      0.516427
Ti	     10.42788     10.38755     12.63873        -0.602216      0.023645     -0.854524
Ti	      8.34896      6.29867      6.47509        -0.153820     -0.209846     -0.280499
Ti	      2.10358      4.17339      6.15367         0.122444     -0.122505     -1.050348
Co	      6.32961      8.35976     10.58099         0.405718     -0.137978      0.056224
Cu	      4.13615      2.10697      2.14656        -0.120311     -0.091998      0.071202
Cu	      0.04050      2.18695      2.23348         0.063091      0.153566      0.123914
Ni	      4.21114      6.23773     10.54938         0.021673     -0.064941      0.085254
Ni	      4.22909      6.26474      6.24025         0.090546      0.070113      0.153048
O	      6.30253      4.12274      8.45997         0.076507     -0.059007     -0.073229
O	      2.11555      2.07217      2.15319         0.268809      0.069357     -0.041231
O	      4.20177      4.13889      1.96094         0.049132     -0.083063      0.121192
O	      4.40950      2.03074      4.43614        -0.068230      0.262321      0.136111
O	      6.34209      4.03213      4.25777        -0.213656     -0.055428     -0.299934
O	      6.23987      1.97248      6.44337         0.035925     -0.066542     -0.412280
O	      8.49142      4.24341      6.31043         0.495373      0.172006      0.285757
O	      2.12752      4.17327      4.34862         0.013403     -0.001203      0.809427
O	      4.20310      6.24506      4.22351        -0.019044     -0.151805     -0.316907
O	      4.08154      4.11243      6.36132        -0.263477     -0.070044      0.098914
O	      6.39137      6.34437      6.32017         0.129749      0.205670      0.076281
O	      8.48473      6.25051      8.31373        -0.242316     -0.035225     -0.145746
O	      2.04531      6.16414      6.35447        -0.146288     -0.129838      0.109617
O	      4.25049      8.44699      6.17959         0.248531      0.115495      0.068179
O	      4.18999      6.38294      8.37436        -0.118223      0.070736     -0.205270
O	      6.15525      8.35774      8.36878        -0.047649     -0.009299      0.475590
O	      6.30212      6.38979     10.68128         0.095665      0.178814      0.404438
O	      8.20516      8.41001     10.55490        -0.330757     -0.179646     -0.038993
