# total energy = -226.12010562 eV
 
CRYSTAL
PRIMVEC
-0.021626 6.332626 6.268323 
6.248931 -0.031825 6.277767 
4.138838 4.200488 0.006433 
PRIMCOORD
36 1
Li	      6.30653      0.13865      6.25516        -0.028375     -0.043267      0.041248
Li	      8.19907      2.03388      6.25185         0.136146      0.026502      0.072555
Li	      6.25306      2.08418      4.34237        -0.132770      0.010412     -0.041826
Li	      6.22358      6.22942      4.23370         0.220019     -0.010826     -0.062372
Li	      4.18886      4.22437      4.22275         0.026001     -0.171253     -0.097562
Li	      4.30432      2.13456      6.25644        -0.059480     -0.034605     -0.135130
Li	      6.13027      4.07952      6.28133         0.013859      0.040783     -0.012147
Li	     10.30303      8.34719     10.40627         0.008628      0.057915     -0.028675
Li	      4.24031      4.13782      8.34788         0.023784     -0.022215      0.006557
Sc	      8.27753      4.17849      8.33163        -0.001553     -0.143378     -0.020693
Ti	      6.22906      4.13774      2.19988        -0.344262      0.209113      0.311441
Ti	      8.40152     10.40646     10.62519         0.028365      0.578005      0.285556
Ti	      2.14661      4.16428      6.10434        -0.271345     -0.098759     -0.240557
Co	      4.16160      2.07275      2.15857         0.076608     -0.272009     -0.401391
Cu	      6.17754      2.16455      8.32274        -0.038360      0.028937     -0.184283
Cu	      8.26117      6.41897     10.41907        -0.400701     -0.010425      0.097943
Cu	      4.14555      6.32206      6.16897        -0.031385      0.106304      0.043286
Ni	      6.20503      6.30058      8.34803        -0.080733      0.019287      0.024352
O	      2.08652      2.00464      2.09927         0.757330     -0.169610      0.025245
O	      4.23601      4.14144      2.13098         0.169292     -0.754276     -0.014616
O	      4.17799      1.97041      4.01486        -0.010175     -0.185002      0.315548
O	      6.31962      4.17864      4.07382        -0.026388     -0.036689     -0.091656
O	      6.24264      2.09933      6.40778        -0.029345      0.073461      0.353198
O	      8.34969      4.20985      6.21740        -0.005023      0.001216     -0.134914
O	      2.01532      4.14504      4.24199        -0.021045     -0.069653      0.213686
O	      3.93416      6.35085      4.01362         0.190480      0.042296     -0.066769
O	      4.02291      4.27366      6.22079         0.019609      0.022765      0.005580
O	      6.12866      6.43820      6.30823         0.085529      0.053402     -0.156107
O	      6.25988      4.23168      8.32974         0.099840      0.084327     -0.005648
O	      8.24805      6.25745      8.34059         0.051630     -0.083954      0.002766
O	      2.12156      6.22367      6.38522        -0.049632      0.007551     -0.137115
O	      4.23113      8.33323      6.48863         0.078484      0.018587     -0.030836
O	      4.07831      6.32203      8.49321         0.057255      0.795983     -0.244177
O	      6.20997      8.50173      8.29047        -0.615968      0.013019      0.076409
O	      6.20053      6.33112     10.41421         0.121136     -0.015757      0.194842
O	      8.29358      8.57377     10.49187        -0.017452     -0.068185      0.036262
