# total energy = -225.28464044 eV
 
CRYSTAL
PRIMVEC
0.042903 6.261911 6.585722 
6.146606 0.035553 6.594161 
4.125634 4.207546 -0.004148 
PRIMCOORD
36 1
Li	      6.15967      4.16901      2.32548         0.025868     -0.009579      0.302975
Li	      4.25800      8.33364      8.88092         0.051880     -0.122638      0.281055
Li	      6.10728      2.12221      4.35953        -0.170791      0.136891     -0.053673
Li	      6.18456      6.28514      4.49354         0.312344     -0.224805     -0.048587
Li	      4.15693      4.22096      4.44981         0.243003     -0.222494     -0.034956
Li	      4.03860      2.09808      6.46236         0.146295     -0.074635     -0.357675
Li	      6.15892      4.35310      6.53104         0.099140     -0.187066     -0.289015
Li	      2.18744      6.23072      4.33432        -0.211066      0.093674      0.036707
Li	      6.11953      6.34574      8.60238        -0.103139      0.044919      0.105163
Sc	      2.15166      8.35644      6.56162        -0.091011      0.140224     -0.318976
Ti	      6.15103      0.09705      6.58226        -0.235949      0.349930     -0.653668
Ti	      2.03797      4.22900      2.30015        -0.016033     -0.247207      0.192687
Ti	      8.13961      8.38547      8.66275        -0.742178      0.342398      0.435788
Co	      3.98767      0.09824      4.27007         0.793247     -0.038216      0.016238
Cu	      4.14693      6.32317      2.27685         0.074339      0.064440     -0.047109
Cu	      0.05231      4.15254      4.39040        -0.192946      0.281460     -0.106938
Cu	      6.18313      8.32574      6.58137        -0.007414      0.083709      0.106600
Cu	      4.20035      6.23009      6.48784        -0.194745     -0.211011      0.356322
O	      6.11471      6.39147      6.56955        -0.302379      0.038517     -0.061944
O	      2.00244      2.25954      2.09799         0.021208      0.146102     -0.018082
O	      4.03639      4.31041      2.09363        -0.117384     -0.033326     -0.067728
O	      4.12425      1.88604      4.33735        -0.334098      0.463002      0.023206
O	      6.35203      4.18550      4.40755        -0.952686      0.207860      0.037412
O	      6.21508      1.97380      6.47499         0.054584     -0.276608      0.229248
O	      8.30434      4.22137      6.73582         0.193490      0.086391      0.289741
O	      2.06311      4.22786      4.15614         0.034446      0.022036     -0.328926
O	      4.13969      6.41609      4.53932         0.201837     -0.072273      0.059078
O	      4.04965      4.08151      6.74761         0.025023      0.152999      0.067486
O	      6.20827      4.19169      8.63908         0.102705      0.078851     -0.116775
O	      8.30273      6.34265      8.85156        -0.109181     -0.127722      0.011566
O	      2.04524      6.24655      6.55978         0.197519      0.025350     -0.009830
O	      4.21521      8.54643      6.78183        -0.033518      0.011369      0.224134
O	      4.13646      6.13348      8.78716         0.105527     -0.152848     -0.427285
O	      6.33851      8.34748      8.92760         0.646419     -0.110965     -0.200754
O	      5.99863      6.18731     11.18785         0.387759     -0.175183      0.418740
O	      8.33095      8.55541     10.93959         0.097886     -0.483544     -0.052223
