# total energy = -224.17981024 eV
 
CRYSTAL
PRIMVEC
0.002284 6.360137 6.366267 
6.334095 -0.052875 6.421222 
4.183645 4.237420 0.004103 
PRIMCOORD
36 1
Li	      4.27032      2.09189      2.30325        -0.013324      0.058657      0.014569
Li	      4.09874      0.12072      4.24075        -0.020383     -0.002063      0.003791
Li	      6.11964      2.23906      4.24097         0.051738      0.022067     -0.037017
Li	      4.36937      4.09476      4.38955        -0.007649      0.050208      0.003844
Li	      4.20504      2.25879      6.25929         0.075646     -0.102379      0.069448
Li	      6.14547      4.22947      6.26354         0.135602     -0.052770     -0.048876
Li	      2.30574      4.17044      6.43413        -0.029151      0.036072      0.053091
Li	      4.23805      6.16755      6.41625        -0.040221      0.017099     -0.016712
Li	      4.17851      4.23344      8.35653        -0.031212     -0.028001     -0.000774
Sc	      2.17988      4.25153      2.10103        -0.056197      0.048302     -0.109535
Ti	      8.33825      2.07876      6.45210        -0.226202      0.298260      0.124471
Ti	     10.50812      8.44693     10.69572         0.005000      0.062390     -0.123446
Ti	      2.10865      6.36131      4.27234        -0.035487      0.010080     -0.253914
Co	      6.03871      6.58320      8.26785         0.164635      0.137727      0.133428
Ni	      4.19145     10.58257      6.36886        -0.065170      0.010493     -0.001605
Ni	      6.31442     10.49781      8.57426         0.231285     -0.168854     -0.004451
Ni	      6.34062      2.07765      8.52577        -0.023205      0.013739      0.021280
Ni	      6.40611      6.20589      4.43348        -0.157239      0.113464      0.027090
O	      4.22886      4.19743      6.37263        -0.011241      0.015427     -0.017656
O	      2.10508      2.10117      2.00786         0.097807      0.091799     -0.146523
O	      4.23205      4.30408      2.05055        -0.116224     -0.123807      0.100678
O	      4.14457      2.13029      4.29933         0.050859      0.057717      0.022623
O	      6.30816      4.26593      4.19933        -0.001374     -0.051754      0.099676
O	      6.44387      2.00889      6.43027         0.303504      0.087761     -0.086246
O	      8.45322      3.99824      6.46156        -0.119149     -0.294357     -0.017408
O	      2.00066      4.32863      4.25564        -0.051274      0.051472      0.067971
O	      4.11888      6.47757      4.22941        -0.065341      0.073304      0.159035
O	      6.33725      6.28622      6.47662        -0.050854      0.046594     -0.176886
O	      6.38484      4.15549      8.73264        -0.023122      0.024762      0.206122
O	      8.45359      6.27067      8.74698        -0.042304     -0.003601      0.219745
O	      2.09363      6.43520      6.27354         0.142713      0.014523     -0.102692
O	      4.06734      8.50412      6.20933        -0.038172     -0.122809     -0.139781
O	      4.26043      6.29234      8.53663        -0.159523     -0.002625     -0.054774
O	      6.31980      8.40127      8.54249        -0.128434     -0.076029     -0.071400
O	      6.45654      6.19031     10.68320         0.136925     -0.162555     -0.008912
O	      8.50050      8.28583     10.77666         0.116736     -0.150312      0.091746
