# total energy = -228.58761399 eV
 
CRYSTAL
PRIMVEC
-0.001406 6.403341 6.181718 
6.250065 0.012438 6.168416 
4.156393 4.249597 0.018685 
PRIMCOORD
36 1
Li	      6.31940     10.60327      8.31522         0.022062     -0.015147     -0.025311
Li	      4.16514      2.11222      2.18496         0.001513     -0.021876     -0.109525
Li	      6.13065      2.21722      4.06016        -0.000633      0.002278      0.069267
Li	      2.07589      4.22956      2.19226        -0.023636     -0.063400      0.010802
Li	      2.13062      2.21981      4.01859        -0.023451     -0.040787      0.000424
Li	      4.15811      2.17666      6.08096         0.006025      0.068192     -0.060027
Li	      4.20809      8.40696      4.12355         0.053799     -0.080418      0.080034
Li	      2.20325      6.30651      4.10714         0.041035     -0.064593      0.088484
Li	      4.15639      6.36648      6.20360         0.012380     -0.015721     -0.068153
Sc	      6.29090      6.45006      8.34122        -0.102004      0.162213     -0.016020
Ti	      4.15685      4.22043      0.06044         0.208238     -0.148824     -0.248477
Ti	      2.08963      8.48643      6.15369         0.143066     -0.239631     -0.214182
Ti	      6.16550      4.37585      6.12301        -0.229468      0.344214     -0.380614
Co	      4.12761      6.34706      2.10778        -0.169839      0.118176      0.893992
Co	      4.13258      4.21811      4.06696         0.052559      0.009657      0.109692
Cu	      2.14139      4.23507      6.13141        -0.083144     -0.028814      0.012249
Ni	      4.12109      0.13332      4.07696        -0.048004      0.049159     -0.037739
Ni	      8.31491      8.55856      8.35090        -0.054677      0.075643     -0.021627
O	      1.89832      2.14794      1.93192         0.316500      0.020137     -0.311783
O	      4.09855      4.25223      2.00530         0.044650      0.230903      0.020486
O	      4.17073      2.25195      4.10768        -0.078810      0.124143     -0.081361
O	      6.18919      4.21472      4.21213        -0.123629      0.051965      0.204691
O	      6.28961      2.11898      6.26197         0.098128     -0.074660     -0.884264
O	      8.30447      4.18906      6.16352        -0.024859     -0.037845      0.158808
O	      2.21866      4.24372      4.22760        -0.012204      0.047864     -0.086092
O	      4.18364      6.17625      4.00201        -0.026214     -0.125064      0.679753
O	      4.26117      4.26697      6.09499         0.303747     -0.057495     -0.007200
O	      6.25237      6.22569      6.21610         0.046828     -0.498476      0.067146
O	      6.24120      4.28758      8.15160         0.137671     -0.174205      0.013034
O	      8.41962      6.47311      8.27321        -0.170318     -0.128154     -0.150542
O	      1.93994      6.54563      6.17008        -0.173066      0.294118      0.051564
O	      4.04996      8.66353      6.21587        -0.211154      0.235430     -0.007941
O	      4.20933      6.37445      8.26909         0.032532      0.060267     -0.155361
O	      6.30242      8.49200      8.09331        -0.129143      0.002686      0.095477
O	      6.19617      6.45926     10.44408         0.121764     -0.025019      0.061449
O	      8.30699      8.61426     10.42185         0.041755     -0.056914      0.248869
