# total energy = -138.64867130 eV
 
CRYSTAL
PRIMVEC
4.050778 -0.000008 -0.000011 
-2.025366 -4.290697 2.031554 
2.025466 -4.308906 -0.000000 
PRIMCOORD
24 1
Li	     -1.01264     -5.14629     -0.99380        -0.001277      0.005691     -0.010992
Li	      3.03774     -5.60056     -5.15831        -0.001038     -0.021994     -0.041470
Li	      3.03816     -5.36707     -9.16632        -0.002337      0.041009      0.059469
Li	      3.03804     -3.04640     -3.01449         0.002675      0.006479     -0.004003
Li	      3.03762     -3.42765     -7.19195         0.000939     -0.038145     -0.049888
Li	     -1.01263     -3.18005      1.03230         0.000069      0.034801      0.047776
Mn	      3.03800     -1.03275     -1.00733         0.000182      0.118688      0.128574
Mn	      1.01252     -5.37040     -3.03850        -0.001872      0.166983     -0.084931
Mn	      1.01246     -3.28390     -5.09502        -0.000837     -0.182186     -0.102092
Ni	      1.01256     -5.40989     -7.15612        -0.000229     -0.029174      0.007621
Ni	      1.01240     -3.17181     -1.02473         0.001016     -0.043145     -0.016357
Ni	      3.03798     -7.52463     -7.15773         0.000557      0.041678      0.063943
O	      1.01272     -3.42449      0.99032        -0.004463     -0.138256     -0.058279
O	      1.01258     -3.44550     -3.12490        -0.001753      0.043615     -0.087243
O	      5.06327     -3.40701     -7.02558         0.002860      0.211487      0.219728
O	      3.03792     -5.59638     -3.04852        -0.002557     -0.139114      0.022317
O	      3.03788     -5.53614     -7.12755         0.001332      0.159929     -0.001092
O	      1.01258     -1.14127     -1.05565         0.001433      0.128387     -0.033697
O	      3.03784     -2.97938     -1.05120        -0.000265      0.047105     -0.005608
O	      3.03787     -3.04202     -5.07605         0.000935      0.110306      0.020035
O	      1.01249     -7.36239     -7.12311         0.003869     -0.174789     -0.001074
O	      1.01265     -5.24270     -1.06395         0.000990     -0.138630      0.043191
O	      1.01220     -5.21119     -4.99865         0.001295      0.005439      0.146182
O	      5.06340     -5.24833     -9.26574        -0.001524     -0.216165     -0.262109
