# total energy = -228.18340805 eV
 
CRYSTAL
PRIMVEC
0.062531 6.180275 6.292395 
6.281568 0.034659 6.320222 
4.205757 4.157008 0.004866 
PRIMCOORD
36 1
Li	      6.39398      6.21527     12.49255        -0.027154     -0.026500     -0.147690
Li	      4.34749      6.19081     10.35685         0.118072     -0.011695      0.007979
Li	      4.19338      6.17476      2.23666         0.002360     -0.042568      0.071695
Li	      2.14499      4.15122      2.19643         0.080234     -0.006026      0.061276
Li	      2.05495      2.04846      4.09690        -0.148103      0.000243     -0.050121
Li	      6.29354      4.22173     10.40845        -0.034611     -0.017477     -0.064820
Li	      4.19140      6.17575      6.33540        -0.039785      0.017754     -0.111251
Li	      8.43858      8.34544      8.51946         0.028237      0.001136      0.111922
Li	      6.34589      6.22200      8.56880         0.052002      0.012813     -0.047727
Sc	      8.48128      6.18949      6.38326        -0.016751      0.016865      0.009301
Ti	      2.18565      8.25323      6.27892         0.072675     -0.081393     -0.064220
Ti	      6.25492      4.25857      6.47600        -0.082230      0.121518      0.527168
Ti	      6.14726      8.30435      6.30797        -0.133757      0.054859     -0.085371
Co	      6.29768      4.17763      2.13391        -0.022764     -0.026635     -0.054253
Co	      4.24171      4.16511      4.18271         0.001862      0.073521      0.127218
Cu	      4.15991      2.05290      2.23525        -0.093691     -0.023036     -0.086983
Cu	      8.43021      6.21511     10.33784         0.028743      0.016135      0.035187
Ni	      6.38598      8.26472     10.41936         0.096109      0.008025     -0.107469
O	      2.02972      1.97905      1.93835        -0.203899     -0.014260     -0.035706
O	      4.32725      4.03024      2.26048        -0.072583      0.021516      0.014331
O	      4.27976      2.20384      4.24325        -0.144000     -0.230875      0.169253
O	      6.17167      4.16710      4.11512         0.082742      0.065925      0.175635
O	      6.38738      2.22662      6.26458         0.034402      0.054627      0.063179
O	      8.28217      4.08752      6.31325        -0.070353     -0.033024     -0.055482
O	      2.24823      4.10037      4.41764         0.069071     -0.111678      0.121006
O	      4.10715      6.06553      4.17731         0.114125      0.025643      0.118684
O	      4.30183      4.14923      6.19641         0.114037     -0.004200     -0.000375
O	      6.34786      6.24198      6.32714        -0.023429     -0.081813     -0.033435
O	      6.27309      4.19084      8.25804        -0.076669      0.028593     -0.561506
O	      8.46145      6.18685      8.31160         0.011922      0.053985     -0.096121
O	      2.12177      6.16787      6.48391        -0.063607      0.100790      0.177331
O	      4.27159      8.28425      6.25265         0.173354      0.045340     -0.168831
O	      4.08417      6.30560      8.42211        -0.167391     -0.064626     -0.013310
O	      6.46655      8.38993      8.25997         0.187941      0.095279     -0.092011
O	      6.44716      6.27212     10.49810         0.060728     -0.166276      0.002377
O	      8.46523      8.27827     10.70290         0.092161      0.127514      0.083143
