# total energy = -228.16963397 eV
 
CRYSTAL
PRIMVEC
0.010501 6.333880 6.309476 
6.318929 -0.004523 6.324473 
4.205409 4.225474 0.004154 
PRIMCOORD
36 1
Li	      2.10770      0.07391      2.13499         0.015080     -0.121800     -0.001444
Li	      4.12912      2.12298      2.15188         0.104304      0.000281     -0.059357
Li	      8.39989      4.20389      4.25858         0.042643     -0.070004      0.148770
Li	      0.02648      2.14346      2.11800        -0.148584      0.074722     -0.158484
Li	      8.42045      4.15421      8.35803         0.000575      0.059299     -0.216239
Li	      8.42297      6.29495      6.33552         0.128113     -0.109866      0.041805
Li	      6.41661      4.17330      6.33384         0.205415     -0.173178      0.004133
Li	     10.49109      8.42864     10.49965        -0.092693      0.056237      0.029191
Li	      8.42455      6.38807     10.48159        -0.107000      0.143255      0.000783
Sc	      4.17937      6.36180      6.32669        -0.083078      0.239018      0.184476
Ti	      4.23803      4.20155      4.02222         0.298916     -0.067015     -0.377569
Ti	      2.12056      4.24388      6.29701        -0.271323      0.189252      0.348546
Ti	      6.40293      6.23359      8.57843         0.121574     -0.146615      0.529660
Co	      2.14819      2.07341      4.06904         0.055343     -0.259354     -1.125966
Co	     10.43294      4.26095      6.36793         0.196862      0.096000     -0.078842
Cu	      8.35026      2.21494      6.36703         0.177124      0.099298     -0.122978
Cu	      6.33161      2.14746      4.25318         0.021726     -0.125508      0.027262
Cu	      8.46546      8.42392      8.50072         0.028169     -0.083902      0.279906
O	      8.33301      8.44879     10.66717         0.085618     -0.010203     -0.315118
O	      2.10574      2.09617      2.09574         0.097657      0.008730      1.353372
O	      4.19008      4.23368      2.20402        -0.035543     -0.039525      0.505473
O	      4.24506      2.23242      4.21644        -0.415993      0.081933     -0.093108
O	      6.20931      4.21833      4.22077        -0.218390      0.737436     -0.034063
O	      6.40322      2.05912      6.23517        -0.604137     -0.147694      0.336022
O	      8.47328      4.17968      6.34075        -0.142164      0.244119      0.027517
O	      2.20502      4.16352      4.32338         0.076095     -0.273380     -0.085813
O	      4.26608      6.20457      4.23274         0.196465      0.017728     -0.063309
O	      4.06926      4.26628      6.20768        -0.017056     -0.003572     -0.051401
O	      6.28257      6.45825      6.34825         0.028414     -0.035291     -0.243984
O	      6.26554      4.34365      8.44103         0.282341      0.209662      0.026212
O	      8.30279      6.40870      8.41694        -0.202873     -0.074943      0.047080
O	      2.09243      6.19142      6.34426         0.090693     -0.303611     -0.006404
O	      4.31931      8.44812      6.28867         0.276535     -0.103071      0.058507
O	      4.34668      6.25464      8.39316        -0.002454      0.246557     -0.064900
O	      6.39239      8.35711      8.34337        -0.218997     -0.086210     -0.375237
O	      6.32618      6.37962     10.43453         0.030618     -0.268784     -0.474496
