# total energy = -231.25965583 eV
 
CRYSTAL
PRIMVEC
-0.024002 6.431690 6.274063 
6.288755 -0.019967 6.270664 
4.175103 4.267578 0.003966 
PRIMCOORD
36 1
Li	      6.30613      8.55480     10.44921         0.010490      0.049058     -0.009837
Li	      6.22271      2.30971      8.39937        -0.026636      0.012499      0.130859
Li	      6.20298      6.49422      4.22881        -0.100742     -0.030154     -0.000570
Li	      3.98352      4.56009      4.22155         0.069377      0.028911     -0.058712
Li	      8.40008      6.33785     10.26504         0.045082      0.150389     -0.010503
Li	      2.10909      4.28867      6.15447        -0.051287     -0.015251      0.002166
Li	      4.19044      6.36723      6.21054         0.073621      0.023047     -0.233634
Li	      4.26520      4.27101      8.37300         0.012246     -0.050344      0.083718
Li	      6.34037      6.29439      8.35429         0.021269     -0.043868      0.052656
Sc	      6.25691      6.42802     12.50717         0.096434     -0.140633     -0.056607
Ti	      6.29358     10.67033      8.43399        -0.375708      0.087863      0.246116
Ti	      4.26215      8.45478      8.42833         0.175953      0.486476      0.143336
Ti	      8.26728      6.58398      6.38786        -0.171715      0.243004      0.200042
Co	      8.36189     10.62267     10.44066         0.001190     -0.152347     -0.214571
Co	      8.32603      8.50920     12.53366        -0.039047     -0.111018     -0.103513
Co	      4.19172      8.40119      4.08959        -0.320826      1.213980      0.399452
Cu	      8.32279      4.30780      8.44010        -0.085680      0.020945      0.290405
Ni	      6.25811      4.27612      6.26231        -0.081918     -0.026126     -0.056857
O	      2.18349      1.90854      2.11872         0.160476     -0.244140     -0.022741
O	      4.23868      4.07665      2.18092         0.088706     -0.109384     -0.028611
O	      4.23199      1.87473      4.12904         0.019121     -0.059134     -0.166351
O	      6.43818      4.20358      4.13997         0.164725     -0.018884     -0.365863
O	      6.20457      2.08928      6.26890         0.101756     -0.109273     -0.042019
O	      8.35245      4.29607      6.40794         0.049528      0.046745     -0.880724
O	      1.98371      4.34751      4.09621        -0.340924     -0.385014      0.018005
O	      4.10267      6.59154      4.20349         0.156007     -0.029824     -0.052619
O	      4.20813      4.16745      6.15852        -0.134762     -0.185765     -0.001219
O	      6.41971      6.35784      6.23579         0.198135      0.118091      0.048164
O	      6.34623      4.27943      8.35694         0.028932     -0.004873     -0.448393
O	      8.35851      6.55651      8.22963        -0.032278      0.012065     -0.397779
O	      2.01015      6.41950      6.45308         0.023746     -0.057254      0.171975
O	      4.13413      8.59629      6.43184        -0.096833     -0.067886      0.434512
O	      4.08391      6.48675      8.29671         0.210215     -0.242631      0.897061
O	      6.14245      8.66096      8.38531        -0.166066     -0.012678     -0.013895
O	      6.12334      6.25439     10.47026         0.003610     -0.389311     -0.063156
O	      8.38717      8.71727     10.49876         0.313802     -0.007282      0.109706
