# total energy = -231.06737571 eV
 
CRYSTAL
PRIMVEC
-0.019273 6.188950 6.153036 
6.578210 0.029362 6.105948 
4.420030 4.131506 -0.016545 
PRIMCOORD
36 1
Li	     10.85983      4.15463      6.01165         0.011083     -0.001708     -0.078050
Li	      8.76616      8.31052     12.20426         0.024714     -0.080295      0.061955
Li	      6.65733      6.18164      4.12423         0.008256     -0.010423     -0.049001
Li	      4.32908      2.13265      6.09855        -0.038174      0.021508      0.028329
Li	      6.59769      4.16189      6.09437        -0.005466      0.003618     -0.052696
Li	     10.88730      8.31297     10.15786         0.019300      0.034229      0.053897
Li	      6.68601      8.22040      6.15435        -0.020619      0.028280     -0.061850
Li	      4.58481      4.06384      8.16667        -0.026609      0.002804      0.092955
Li	      6.64480      6.24907      8.16883         0.016160      0.015733      0.002522
Sc	      8.65696      4.15878      8.01144         0.005705     -0.119921      0.302183
Ti	      4.43023      8.29911      8.11453        -0.075720     -0.142666     -0.327316
Ti	      8.67878      6.28668     10.25315        -0.337535     -0.270577      0.174276
Ti	      4.57240      6.09612      6.13264         0.292081      0.321387     -0.149809
Co	      4.36061      4.13953      4.13557         0.132826      0.207813     -0.151033
Co	      2.14876      6.22702      8.13537         0.018674     -0.062854      0.428352
Co	      6.57331      2.10852      4.20435        -0.003028      0.178782     -0.041924
Cu	      8.79867     10.30787     10.24713        -0.067514     -0.048297     -0.056442
Cu	      6.51385      2.09103      8.01189         0.102845     -0.054031     -0.029626
O	      2.45622      2.06672      2.08196         0.194163     -0.249756     -0.107313
O	      4.36246      4.14179      1.95809        -0.109480     -0.140355      0.816015
O	      4.44422      2.09515      4.04307        -0.012694      0.362844      0.029271
O	      6.25077      4.12050      4.03191         0.165010     -0.132391     -0.394643
O	      6.58968      2.07948      6.01468        -0.012984      0.007319     -0.027188
O	      8.76973      4.17015      6.00335         0.012601      0.028541     -0.001353
O	      2.43464      4.24310      4.07810        -0.202715      0.124635     -0.060383
O	      4.30757      6.14064      4.14260         0.002119     -0.389266      0.182881
O	      4.35684      4.22603      6.20038         0.027616     -0.201235     -0.984648
O	      6.39743      6.20887      6.12217        -0.420981     -0.093918      0.070695
O	      6.65336      3.99772      8.17576        -0.045021      0.115136     -0.033677
O	      8.72745      6.20894      8.28048        -0.123615      0.024345      0.011995
O	      2.36866      6.21546      6.07818        -0.020026      0.055095      0.111434
O	      4.42989      8.15537      6.23288         0.027283      0.015552      0.355008
O	      4.37472      6.28438      8.20816         0.138552      0.098781     -0.089001
O	      6.37770      8.30439      8.31883        -0.055568      0.410411     -0.021617
O	      6.79672      6.19368     10.24516         0.356349      0.089213      0.018194
O	      8.70215      8.28487     10.18391         0.022411     -0.148333     -0.022392
