# total energy = -222.26307954 eV
 
CRYSTAL
PRIMVEC
0.007884 6.341551 6.363035 
6.154441 0.019509 6.351498 
4.113409 4.230381 0.002638 
PRIMCOORD
36 1
Li	      6.15491      6.33886     12.62273        -0.057631     -0.060533      0.032276
Li	      4.18357      6.35815     10.53854        -0.003783      0.000098      0.022586
Li	      6.10077      2.25813      8.53798        -0.041945     -0.046586      0.000394
Li	      4.11295      4.17901      4.34018         0.076619      0.008601      0.002868
Li	      4.14659      2.27371      6.45585        -0.034917     -0.002184      0.034759
Li	      6.05430      4.21675      6.46298        -0.023627      0.059863      0.043546
Li	      4.13160      6.27902      6.39983         0.010272     -0.038901      0.037894
Li	      4.17807      4.13486      8.40482        -0.088832      0.045067     -0.054531
Li	      6.14943      6.31085      8.53626        -0.056400      0.029485     -0.022844
Sc	      8.25269      4.39473      8.44355         0.201020      0.023829     -0.247697
Ti	      8.03473      2.18330      6.27981        -0.225137      0.480512     -0.094721
Ti	      2.09696      6.29855      8.42102         0.241729     -0.216436      0.049769
Ti	      6.20578      6.26851      4.42559         0.197262     -0.462980      0.535840
Cu	      2.08553      4.20234      6.34843        -0.143706     -0.006027      0.304349
Ni	      6.07415      2.05156      4.23030        -0.099786      0.059510     -0.240800
Ni	      2.10868      6.34661      4.20361         0.068943      0.004864      0.162389
Ni	      4.12051      8.44707      8.44853        -0.004707     -0.009604     -0.075232
Ni	      6.16905      4.30087     10.56670        -0.159776      0.323042     -0.145681
O	      2.04612      2.05316      2.00454        -0.160795      0.063330      0.042040
O	      4.20146      4.17810      2.08847        -0.014712      0.156012      0.030259
O	      4.01742      2.10676      4.16172        -0.317265      0.026942      0.124805
O	      6.11318      4.36539      4.10518        -0.002513      0.175993     -0.053473
O	      6.19946      2.14980      6.25074         0.228180      0.074284      0.238917
O	      8.19786      4.06873      6.39754        -0.018208     -0.488021      0.081728
O	      2.09759      4.16146      4.25904        -0.178356      0.070644     -0.202525
O	      4.23055      6.52717      4.23692         0.157485     -0.222126      0.047002
O	      3.91186      4.24982      6.35836         0.338412     -0.038981     -0.024142
O	      6.19682      6.28297      6.25711        -0.065906     -0.142298     -0.479187
O	      6.17100      4.27861      8.62179         0.136146     -0.070167     -0.104888
O	      8.26496      6.35021      8.52526        -0.024309     -0.146731     -0.147429
O	      2.07620      6.46118      6.43508         0.004716      0.305236      0.075958
O	      4.25414      8.47009      6.27284        -0.043520     -0.073742      0.035469
O	      3.96944      6.40205      8.47746        -0.289260     -0.116121      0.000782
O	      6.14902      8.55642      8.51698         0.170446      0.153047     -0.268451
O	      6.22881      6.29170     10.60514        -0.041802     -0.049699      0.036554
O	      8.19694      8.42370     10.72505         0.265663      0.130776      0.221417
