# total energy = -223.69795189 eV
 
CRYSTAL
PRIMVEC
0.009482 6.307062 6.257372 
6.333843 0.005876 6.260831 
4.212474 4.196948 0.013928 
PRIMCOORD
36 1
Li	      4.24084      4.18136      0.08860        -0.004638     -0.029667     -0.015228
Li	      6.26235      4.17603      2.07976        -0.027485     -0.016088      0.037266
Li	      4.20590      2.16307      2.03186        -0.005475     -0.015773      0.023133
Li	      6.25919      6.33408      4.20448         0.045340      0.005554     -0.004797
Li	      4.27304      4.22941      4.15794         0.041804     -0.023912     -0.026568
Li	      6.28984      4.24042      6.27616         0.001431      0.016113     -0.023635
Li	      4.28114      8.30119      4.19264         0.007441     -0.017686      0.035193
Li	      2.10790      6.32366      4.21945        -0.025545     -0.000392      0.022538
Li	      4.20889      6.30767      6.25041        -0.004008     -0.007317      0.020516
Sc	      8.39087      4.16502      4.19613        -0.051913      0.056994     -0.007764
Ti	      4.27971      6.21400      2.22568         0.148394     -0.319511      0.318037
Ti	      4.24925      2.17144      6.22600         0.056063      0.058935     -0.292847
Ti	      2.00099      4.31990      6.10627        -0.201346      0.202437     -0.152735
Cu	      2.17402      8.29886      6.27198         0.034774     -0.020531     -0.099265
Cu	      6.31629      6.29310      8.34519         0.049085     -0.018364      0.056433
Ni	      6.33393      8.41111     10.41056        -0.111828      0.046026      0.068099
Ni	      2.09409      4.19361      2.14378         0.019772     -0.010640      0.071009
Ni	      4.24321      4.21444      8.34881        -0.030043      0.057108      0.052521
O	      2.01284      2.12644      1.96651        -0.160098     -0.066968      0.104333
O	      4.15647      4.34547      2.10206         0.106111      0.287986     -0.001604
O	      4.27123      2.08303      4.27104        -0.177436     -0.033092      0.229345
O	      6.34774      4.00450      4.13192         0.085296      0.436454     -0.027765
O	      6.20419      2.15201      6.30624        -0.166313      0.011366      0.188712
O	      8.42559      4.35339      6.29186        -0.021571      0.119210     -0.037824
O	      2.10607      4.19324      4.25148         0.005544      0.033551      0.305386
O	      4.26544      6.30255      4.04276        -0.024314     -0.033667     -0.378010
O	      4.13278      4.10752      6.28116        -0.024895     -0.162442     -0.071521
O	      6.44788      6.38437      6.32181         0.094237      0.048730     -0.038832
O	      6.32901      4.21889      8.38275         0.012978     -0.066220      0.021474
O	      8.50351      6.32137      8.29337         0.096199      0.000668     -0.030244
O	      2.14050      6.17735      6.29071        -0.001503     -0.206453     -0.043223
O	      4.33990      8.41221      6.25884         0.221233     -0.007415     -0.017037
O	      4.34489      6.24002      8.35948        -0.113857      0.095378     -0.016795
O	      6.40035      8.30371      8.34139        -0.094283      0.048888     -0.305832
O	      6.33365      6.49891     10.33143        -0.046868     -0.413650      0.031286
O	      8.33861      8.38539     10.55893         0.267716     -0.055612      0.006243
