# total energy = -223.14403094 eV
 
CRYSTAL
PRIMVEC
0.000454 6.206183 6.443379 
6.227333 0.010857 6.433208 
4.174476 4.152970 -0.015526 
PRIMCOORD
36 1
Li	      6.19732      0.08407      6.41560        -0.002143      0.024531      0.024704
Li	      8.14477      2.16153      6.32510        -0.048115      0.007382     -0.029555
Li	      4.20834      2.02117      2.29428         0.020734     -0.011335      0.006716
Li	      4.21974      0.10892      4.38880         0.005809      0.008410      0.040361
Li	      6.25298      2.09018      8.47810        -0.048027     -0.018792     -0.124733
Li	      4.20266      4.02586      4.41426         0.016963     -0.011560      0.026605
Li	      4.22687      2.07600      6.25978         0.046182     -0.005190      0.013013
Li	      6.31169      4.05362      6.29757         0.026083     -0.020318      0.038640
Li	      6.20779      6.24426      8.62842        -0.016116      0.021499      0.009980
Sc	      4.21203      4.14688      8.56408        -0.009716     -0.026929      0.039829
Ti	      6.13744      4.20205      2.29288        -0.063326     -0.150906      0.000323
Ti	      8.34616      4.15148      8.42116        -0.038863      0.029112     -0.764390
Ti	      2.06278      6.10670      4.33239         0.099766      0.123875      0.007830
Cu	      2.16285      2.13768      4.30733         0.199106     -0.115843     -0.032379
Cu	      4.16352      8.29631      4.33464        -0.157515      0.139936     -0.080305
Cu	      6.22881      8.25356      6.42172         0.071656      0.052896      0.179778
Ni	      6.16717      2.06331      4.36989         0.286671     -0.085515     -0.168918
Ni	      4.16152      6.22617      6.42708        -0.019773     -0.097986      0.142856
O	      6.21081      6.38752      6.27856         0.083085     -0.198942      0.025842
O	      4.37214      8.25036      6.31170        -0.179293      0.124092     -0.038445
O	      2.08994      2.09652      2.22619        -0.000060     -0.002908     -0.108068
O	      4.22063      4.19063      2.06468         0.121519      0.007752      0.057512
O	      4.29688      2.04557      4.31486        -0.723475      0.090560     -0.030278
O	      6.22312      4.27471      4.16832        -0.041354      0.025254     -0.044479
O	      6.20543      2.11406      6.25633         0.037976     -0.017007      0.449141
O	      8.31607      4.13229      6.60524         0.026138     -0.020864      0.551900
O	      2.26607      4.17931      4.06225         0.025545      0.177454     -0.133154
O	      3.99259      6.34593      4.34747        -0.059232     -0.146711     -0.059259
O	      3.96277      4.13726      6.51651         0.164618     -0.012866     -0.062049
O	      6.31749      4.16204      8.62603         0.100915      0.019906     -0.049805
O	      8.32294      6.14434      8.71646        -0.016644     -0.121521      0.052109
O	      2.07217      6.03648      6.41085        -0.064012      0.179663     -0.039444
O	      3.98828      6.19404      8.52609        -0.075744      0.038430      0.094809
O	      6.24537      8.43160      8.79058         0.008398      0.179317     -0.027894
O	      6.34296      6.12032     10.72187        -0.064229      0.009787      0.061159
O	      8.14488      8.13029     10.70842         0.286475     -0.194664     -0.029955
