# total energy = -223.32220853 eV
 
CRYSTAL
PRIMVEC
-0.032127 6.106405 6.335763 
6.422016 -0.014551 6.318612 
4.278963 4.056706 -0.007203 
PRIMCOORD
36 1
Li	      4.23580      2.02328      2.21601        -0.006917      0.018596     -0.002822
Li	      6.35853      2.05263      4.16461         0.086600      0.003009      0.031175
Li	     10.56703      6.12457      8.45875        -0.028543      0.006341      0.005205
Li	      8.49393      4.06580      8.46569         0.008532     -0.058258      0.033338
Li	      6.38247      6.06007      4.24271        -0.051901      0.022059      0.006733
Li	      8.44584      6.07847      6.38672        -0.026036     -0.038454      0.007123
Li	      6.37581      4.09475      6.30530        -0.072810     -0.078799     -0.085073
Li	      8.60304      6.07492     10.36126         0.027763     -0.043683      0.037327
Li	      4.35860      6.02540      6.23681         0.023177      0.001637     -0.046758
Sc	      6.39614      7.99180      6.32623        -0.027844      0.044536     -0.170683
Ti	      6.39169      0.13326      6.25965         0.088016      0.296223     -0.155487
Ti	      2.17500      0.12504      2.18736        -0.132021      0.174716      0.184671
Ti	      4.20969      4.01889      4.24123        -0.126806      0.185914      0.133910
Cu	      8.55567      8.12697     12.62374        -0.005658     -0.018880      0.025418
Cu	      4.28763      0.07846      4.22632        -0.031788      0.041276      0.074020
Cu	      4.26212      8.04105      4.20692         0.120782     -0.049067     -0.057048
Cu	      8.56327      8.07643      8.48187         0.037022      0.100590     -0.153683
Ni	      6.47558      6.07074      8.46589        -0.086013      0.040631      0.104516
O	      6.30387      4.07806      8.66090        -0.080349     -0.151600     -0.243872
O	      8.58930      8.25513     10.56819        -0.217974      0.155317      0.209045
O	      2.19124      1.95367      2.07290         0.066001     -0.226328     -0.005878
O	      4.39871      4.02077      2.01461         0.090542     -0.028657     -0.055221
O	      4.26787      2.07735      4.20033         0.036734      0.028831      0.009557
O	      6.20426      4.05481      4.07816        -0.047048      0.032590     -0.241439
O	      6.54016      1.97509      6.27711        -0.220838     -0.245702      0.089124
O	      8.72669      4.00422      6.25817         0.094843      0.246014      0.082427
O	      2.26206      4.02636      4.21429         0.291660     -0.009994      0.057202
O	      4.24439      6.00348      4.18421        -0.003081     -0.165126      0.022345
O	      4.20570      4.05325      6.15214        -0.015953     -0.044564     -0.211952
O	      6.35131      6.04025      6.41950         0.020811     -0.057715     -0.064706
O	      8.49753      6.16315      8.40129         0.125480     -0.117635     -0.024434
O	      1.99727      6.12569      6.47098         0.005057     -0.221706      0.078060
O	      4.23183      8.14075      6.13062         0.174657      0.012740      0.328359
O	      4.14879      6.06749      8.54766        -0.006838     -0.010695     -0.100774
O	      6.49465      8.16977      8.42467        -0.077561      0.088224     -0.087432
O	      6.57257      6.04537     10.67117        -0.031698      0.067620      0.187707
