# total energy = -223.56875335 eV
 
CRYSTAL
PRIMVEC
0.004960 6.357163 6.453488 
6.219628 0.027205 6.431292 
4.144514 4.221663 0.020268 
PRIMCOORD
36 1
Li	      4.10694      6.39644      2.28624        -0.024040      0.015027      0.038975
Li	      6.13456      6.41819      4.36842         0.030731     -0.023965      0.039383
Li	      6.19679      4.27361      6.51673         0.014125     -0.032539      0.067652
Li	      4.14602      8.30189      4.37812         0.007438     -0.002067     -0.020726
Li	      8.34585      6.44386     10.75218        -0.013438     -0.034612      0.022109
Li	      6.11585      8.42656      6.41995        -0.012500     -0.029026     -0.071475
Li	      4.25654      6.40639      6.37159         0.028043     -0.013499     -0.020768
Li	      4.26139      4.22951      8.60458         0.075077     -0.050456     -0.017643
Li	      6.14460      6.35884      8.56735        -0.058621      0.033874     -0.009246
Sc	      4.17525      4.38062      4.33685        -0.016786     -0.067092      0.054980
Ti	      2.20180      6.29664      8.46978         0.222651     -0.096161     -0.195159
Ti	      8.12060      4.29843      8.66364        -0.362770      0.087830      0.103512
Ti	      8.13640      6.42129      6.52811        -0.442275      0.155779      0.052065
Cu	      6.22588      6.37568     12.87221         0.053676      0.051804     -0.034366
Cu	      8.31566      8.48727     12.81421        -0.036598     -0.078818     -0.075493
Cu	      4.15466      8.46911      8.54394         0.113353     -0.030916     -0.003891
Cu	      8.30759     10.57561     10.76230         0.138546     -0.009663     -0.093241
Cu	      6.25111      8.45737     10.77843        -0.062921      0.016280     -0.110753
O	      6.14088      6.46791     10.86879        -0.064992     -0.172925     -0.145721
O	      8.22291      8.57714     10.80612         0.179417     -0.023541     -0.026613
O	      2.17725      2.12655      2.05518        -0.115014      0.010868      0.061070
O	      4.20753      4.27670      2.16946        -0.057275     -0.057076      0.157609
O	      4.20598      2.05575      4.46080        -0.055404      0.078544      0.166705
O	      6.28618      4.19529      4.14426        -0.097693      0.172671     -0.083019
O	      6.29038      2.05846      6.35035        -0.014429      0.085343      0.183591
O	      8.38624      4.40919      6.65180        -0.174971      0.163946      0.263060
O	      2.11322      4.21210      4.11082         0.049948      0.033326     -0.169175
O	      4.15031      6.31011      4.36818        -0.043789      0.038050     -0.056743
O	      4.20606      4.07456      6.40837        -0.000597     -0.150301      0.012835
O	      6.32013      6.36148      6.44832         0.401853      0.038830      0.046637
O	      6.32237      4.21616      8.58375         0.309877      0.038071      0.052344
O	      8.26930      6.26496      8.49983        -0.000139     -0.098314     -0.042558
O	      1.97445      6.21405      6.59085         0.204024     -0.018420      0.175165
O	      4.05432      8.59476      6.41299        -0.031609     -0.158006     -0.083194
O	      4.04970      6.33574      8.43645        -0.187981      0.003745     -0.053990
O	      6.12040      8.57154      8.71204         0.045080      0.123408     -0.183917
