# total energy = -138.49431832 eV
 
CRYSTAL
PRIMVEC
4.046972 0.000018 -0.000004 
-2.023463 -4.285497 2.041729 
2.023546 -4.307156 0.000000 
PRIMCOORD
24 1
Li	     -1.01362     -5.52896     -1.08147         0.001186     -0.002539      0.041638
Li	      3.03367     -5.44496     -5.15820        -0.001058     -0.069417     -0.057559
Li	      3.03365     -5.21437     -9.14799         0.000743      0.045030      0.019758
Li	      3.03353     -3.35502     -3.14392        -0.000731      0.023895      0.029352
Li	      3.03338     -3.24711     -7.17040         0.000333     -0.033040     -0.043312
Li	     -1.01352     -3.01062      1.08951         0.001133      0.017377      0.008188
Mn	      3.03331     -1.04970     -1.02071         0.002653      0.139977      0.065938
Mn	      1.01005     -5.37051     -3.11605         0.000645     -0.011196     -0.036828
Mn	      1.00991     -3.24269     -1.03535         0.001075     -0.114818      0.090766
Ni	      1.01013     -5.39151     -7.14270        -0.001414     -0.094550     -0.065381
Ni	      1.01000     -3.22883     -5.16523         0.001922     -0.060564     -0.011847
Ni	      3.03343     -7.51204     -7.14405         0.003613      0.079220     -0.039906
O	      1.00979     -3.41093      0.91816        -0.001492      0.019164     -0.114232
O	      1.00996     -3.37759     -2.98149        -0.001463     -0.059846      0.012518
O	      5.05716     -3.47760     -7.17516         0.000357      0.216892      0.062658
O	      3.03363     -5.42280     -3.06393        -0.001213      0.129378      0.016944
O	      3.03358     -5.53741     -7.17515        -0.001584      0.223327      0.014495
O	      1.00985     -1.27925     -1.05571        -0.001799     -0.093447     -0.027596
O	      3.03336     -3.01337     -1.03274         0.001879      0.109628     -0.015624
O	      3.03352     -2.96790     -5.09183        -0.002892      0.123075      0.039351
O	      1.00996     -7.34553     -7.19677         0.000156     -0.192828     -0.021127
O	      1.01003     -5.17982     -1.01912        -0.000110     -0.097653     -0.065689
O	      1.01018     -5.26579     -5.01617         0.001614     -0.134249      0.211283
O	      5.05697     -5.24577     -9.36470        -0.003554     -0.162815     -0.113787
