# total energy = -223.80504760 eV
 
CRYSTAL
PRIMVEC
0.035338 6.215378 6.342518 
6.232567 -0.001145 6.378865 
4.149333 4.161853 0.005042 
PRIMCOORD
36 1
Li	      0.01452      0.02476      0.02891         0.028537      0.016225      0.043028
Li	      2.00473      0.08834      2.05240         0.016122     -0.021306     -0.080912
Li	      6.26414      2.10191      4.35220        -0.013127      0.027642      0.032442
Li	      2.07549      4.12720      2.12053         0.030824     -0.018703      0.022209
Li	      6.14814      6.25476      4.37367         0.031791     -0.013347     -0.007863
Li	      8.23140      6.21797      6.35580        -0.005304     -0.022727     -0.006807
Li	      4.18960      8.24582      4.34165         0.037351     -0.014145      0.051198
Li	      6.25535      8.22294      6.30157        -0.071282     -0.092761      0.027166
Li	      4.23704      6.26089      6.22666        -0.023911      0.016814      0.012568
Sc	      4.10748      2.16800      2.07204        -0.029458      0.047517     -0.058389
Ti	      4.21037      0.04843      4.33522        -0.017679      0.112109      0.218701
Ti	      2.10933      6.10534      4.30630         0.121055     -0.188396      0.267428
Ti	      4.07566      4.14931      8.35049        -0.212466     -0.038521     -0.158059
Ni	      2.09987      2.10494      0.01505         0.081478      0.027736     -0.026509
Ni	      0.06954      2.03527      2.12055         0.006471     -0.008650      0.006139
Ni	      6.27050      4.16823      6.38924         0.048655     -0.066605     -0.157346
Ni	      4.21006      4.12160      4.29257         0.026952     -0.052208      0.011795
Ni	      6.25784      6.18360      8.43420         0.003050      0.097564     -0.002780
O	      2.08584      2.09450      2.04328         0.167021      0.010589      0.185266
O	      4.18784      4.16326      2.22108        -0.015530     -0.126874     -0.032737
O	      4.20180      1.95887      4.23401         0.029844     -0.181190      0.031491
O	      6.33115      4.15649      4.45745         0.092170     -0.000947     -0.142758
O	      6.44304      2.23178      6.42207        -0.166017     -0.099357     -0.094699
O	      8.40677      4.10871      6.25771        -0.022819      0.023388     -0.287352
O	      2.09252      4.25257      4.29231        -0.056962      0.272872     -0.045683
O	      4.04299      6.19551      4.20020        -0.144201      0.062178      0.086746
O	      4.16284      4.09852      6.45019        -0.106860      0.031380      0.211160
O	      6.23449      6.06222      6.42650        -0.023258      0.143760     -0.179167
O	      6.16107      4.14086      8.30876        -0.120366     -0.007893      0.151030
O	      8.32260      6.34442      8.59952        -0.013430      0.112838      0.045311
O	      2.03796      6.36606      6.17504         0.054757     -0.154179     -0.322373
O	      4.03127      8.25884      6.36994         0.141456      0.050771      0.041835
O	      4.14797      6.14042      8.61555        -0.105637     -0.056923      0.058258
O	      6.31181      8.27973      8.37438         0.256269      0.111668      0.067195
O	      6.24694      6.21561     10.52362        -0.037042     -0.008078      0.121459
O	      8.35189      8.34827     10.46831         0.011545      0.007759     -0.088991
