# total energy = -214.42096322 eV
 
CRYSTAL
PRIMVEC
0.029269 6.339544 6.215320 
6.352520 -0.009215 6.254850 
4.224843 4.242080 0.004006 
PRIMCOORD
36 1
Li	      2.28474      8.33330      6.20727        -0.054224      0.020405      0.033052
Li	      4.21994      2.13697      2.23386        -0.074653      0.051746     -0.056413
Li	      6.15252      2.29523      4.16034         0.059135     -0.037858      0.064316
Li	      6.34841      6.35725      4.26103        -0.105579      0.028868      0.060820
Li	      4.35012      4.03957      4.25476        -0.030801      0.109259     -0.057861
Li	      6.20464      4.25921      6.15049         0.047148      0.042817      0.031687
Li	      2.23512      6.37432      4.18817         0.009564     -0.020966      0.013472
Li	      2.22765      4.21644      6.19691        -0.080839     -0.008202     -0.034944
Li	      4.11937      6.45731      6.18306         0.111477      0.015715     -0.028627
Sc	      0.16289      6.26466      6.15993        -0.039052      0.071846     -0.084283
Sc	      8.30654      4.30882      4.18659         0.138779     -0.175834      0.070398
Mn	      2.10897      4.18888      2.09730         0.030934     -0.154041     -0.011460
Fe	      4.26818      6.33307      2.09678        -0.117258      0.004779     -0.022732
Fe	      6.31711      6.53072      8.24352         0.144778     -0.297413      0.065256
Co	      0.04028      4.19214      4.09964         0.091808     -0.196487      0.343177
Cu	      4.22258      4.24000      8.27609         0.097176     -0.020165      0.135867
Ni	      2.20324      6.30236      8.29480        -0.098619      0.137643     -0.135888
Ni	      8.46044      6.36586      6.25932        -0.162717      0.409239     -0.010049
O	      4.25087      4.05557      6.38002         0.038349      0.398152     -0.117764
O	      2.01969      2.23909      2.00377         0.207240     -0.106142      0.071628
O	      4.09497      4.27673      2.10344         0.137452     -0.121269      0.045608
O	      4.22125      2.06588      4.22102         0.019429      0.104691      0.066408
O	      6.33451      4.24338      4.08593        -0.107529     -0.018711      0.200504
O	      6.17528      2.07531      6.33529         0.757124     -0.260563     -0.109903
O	      8.48972      4.30203      6.35470         0.039387     -0.435691     -0.156389
O	      1.94408      4.21108      3.99969        -0.088640      0.077167      0.008897
O	      4.23813      6.56781      4.07316        -0.010550      0.167155      0.067493
O	      6.56120      6.33611      6.34958        -0.810001     -0.190802     -0.150472
O	      6.49150      4.18592      8.39609        -0.223373      0.076396      0.039284
O	      8.48547      6.12597      8.36658        -0.062764      0.124331     -0.040063
O	      2.11985      6.35917      6.29473         0.121258     -0.045034     -0.105350
O	      4.26318      8.47114      6.01490         0.009938     -0.032624     -0.238727
O	      4.34344      6.41863      8.28918        -0.126376      0.129294      0.076452
O	      6.41551      8.43892      8.37734         0.038247      0.160553      0.024587
O	      6.35500      6.15742     10.31624         0.009900     -0.031102      0.067409
O	      8.71301      8.48374     10.25715         0.083852      0.022846     -0.125389
