# total energy = -213.90844178 eV
 
CRYSTAL
PRIMVEC
0.022770 6.216491 6.238896 
6.248634 0.023328 6.238108 
4.186433 4.164576 -0.005056 
PRIMCOORD
36 1
Li	      2.17907      8.22129      6.20345        -0.041083     -0.001293     -0.066635
Li	      4.21691      8.29233      8.29888         0.045591      0.021730      0.060492
Li	      4.20707      6.23858     10.32525        -0.011547      0.022166     -0.006578
Li	      6.33944      8.26616     10.33550         0.092438      0.071602     -0.046152
Li	      2.15355      2.13178      4.09484         0.090930      0.017098     -0.005859
Li	      4.08103      4.12026      4.18031        -0.107980     -0.098188      0.089377
Li	      8.34379      6.27391     10.40507        -0.037914      0.039784      0.007070
Li	      2.11312      4.17250      6.24004         0.034067     -0.000176     -0.024741
Li	      8.29724      8.34783      8.39081         0.005788     -0.014439      0.106510
Sc	      6.27724      4.15541      6.07655         0.124830     -0.027825     -0.266857
Sc	     10.40546      8.37040     10.44389        -0.105334     -0.128203     -0.448160
Mn	      4.14828      2.13061      6.18214        -0.085678     -0.002166     -0.164058
Fe	      6.36897     10.30188      8.37454        -0.043243      0.155513      0.355215
Fe	      4.19347      6.18432      2.20429        -0.124250      0.224090     -0.022261
Co	      0.04411      6.21490      6.22501         0.145542     -0.136232     -0.311793
Ni	      2.13735      4.10968      2.10919        -0.149767     -0.116222      0.038353
Ni	      4.14276      6.24027      6.21774         0.021488     -0.127698     -0.090639
Ni	      6.25276      6.36302      8.37044         0.048371      0.046329     -0.042984
O	      1.98285      1.97370      2.06534         0.067793      0.058003     -0.020890
O	      4.18816      4.19255      1.91723         0.117527     -0.045062     -0.029608
O	      4.14979      2.08679      4.36881         0.048355     -0.037402      0.087408
O	      6.27882      4.17030      4.04711        -0.043651      0.030847      0.371117
O	      6.11952      2.02235      6.30376        -0.085602      0.216487      0.122628
O	      8.45253      4.29904      6.28396        -0.362335      0.099467     -0.108872
O	      2.07884      4.14267      4.05751        -0.024857      0.029823      0.246110
O	      4.16174      6.21613      4.15152        -0.021487      0.044096      0.152671
O	      4.23350      4.07273      6.22472        -0.027964      0.028005      0.003223
O	      6.36194      6.23041      6.30435         0.014824      0.002140     -0.001192
O	      6.32400      4.12111      8.25666        -0.145988     -0.077086      0.061585
O	      8.35845      6.22349      8.19372         0.051592      0.063889     -0.014834
O	      2.00253      6.21553      6.40885         0.288796      0.033724     -0.391806
O	      4.21145      8.42277      6.24254        -0.030061     -0.171219      0.259443
O	      4.18673      6.26213      8.20697         0.148353      0.091701     -0.127942
O	      6.28467      8.43063      8.34691        -0.056774     -0.416553     -0.057396
O	      6.29532      6.27258     10.48501        -0.001528      0.081782      0.260427
O	      8.39504      8.33293     10.43325         0.160757      0.021490      0.027628
