# total energy = -218.62507005 eV
 
CRYSTAL
PRIMVEC
0.020309 6.341452 6.150763 
6.297521 -0.026907 6.197758 
4.194288 4.254654 -0.013938 
PRIMCOORD
36 1
Li	      6.34739      6.30857     12.27018         0.008551     -0.014319      0.018637
Li	      6.22875      4.12752      2.12045        -0.032490     -0.059607      0.001801
Li	      4.44895      8.42531      8.27297         0.041529     -0.005858      0.033843
Li	      4.30515      6.37946     10.27059         0.036123      0.068076      0.000443
Li	      6.19552      2.13268      4.06113        -0.070579      0.045759     -0.026735
Li	      4.20064      2.21702      6.06920         0.005019      0.064474     -0.031600
Li	      6.29127      4.15369      6.09286        -0.069000      0.004701     -0.071166
Li	      6.35278      8.41306      6.20732         0.050808     -0.008277      0.014027
Li	      6.23471      6.48441      8.28269        -0.011374      0.031441     -0.000158
Sc	      8.39126      4.29123      8.15787         0.146965      0.106992      0.030582
Sc	      4.24978      6.34817      6.23415         0.130192     -0.157942      0.087098
Mn	      8.30912      2.08711      6.16899        -0.051137     -0.076781      0.009040
Fe	      6.46383      6.21865      4.14756        -0.125881     -0.112830     -0.150606
Fe	      8.26890      8.49559      8.20432         0.087303     -0.090831      0.056326
Co	      6.30816      2.10103      8.25350        -0.067912     -0.029448      0.045183
Co	      8.39090      6.33539     10.30421         0.018072      0.006864      0.036775
Cu	      4.23808      4.20430      4.12243         0.099137     -0.058570      0.058793
Cu	      6.30440      4.27302     10.32814         0.081536     -0.158506     -0.038331
O	      4.14127      2.07194      4.08172         0.215047     -0.163972     -0.032252
O	      6.51956      6.17681     10.25559         0.080764     -0.027000      0.052964
O	      1.96907      2.16922      2.01309        -0.034932      0.051213     -0.103476
O	      4.17978      4.44154      2.10724        -0.057824      0.088026     -0.128037
O	      6.12176      4.31705      4.09880         0.238181     -0.041869      0.008661
O	      6.39885      2.08401      6.35125         0.065562     -0.061880     -0.089029
O	      8.37463      4.01160      6.15341        -0.049848     -0.102045     -0.015415
O	      2.32385      4.33358      4.11442        -0.325928      0.126472     -0.006922
O	      4.15540      6.49347      4.01157        -0.092501      0.293542     -0.016394
O	      4.21187      4.24596      6.21809         0.055003      0.050666     -0.090250
O	      6.27969      6.38169      6.04569        -0.019149      0.061024      0.177892
O	      6.26055      4.06733      8.34046         0.021387      0.005774      0.022929
O	      8.54053      6.39087      8.32276         0.005005     -0.004363      0.066643
O	      2.10953      6.48452      6.03939        -0.086325      0.110376     -0.154301
O	      4.01538      8.44875      6.11081        -0.066800      0.091055     -0.024335
O	      4.23698      6.20423      8.23392         0.042974      0.114273      0.051835
O	      6.39530      8.45071      8.19333        -0.238107     -0.058591      0.047099
O	      8.24997      8.26807     10.36268        -0.029371     -0.088041      0.158436
