# total energy = -216.68151258 eV
 
CRYSTAL
PRIMVEC
-0.008687 6.362715 6.255084 
6.292765 0.034793 6.210363 
4.213011 4.230586 0.005593 
PRIMCOORD
36 1
Li	      6.37572     10.50141      8.38510         0.049448     -0.076762     -0.047374
Li	      4.31603      8.36847      8.41833         0.121587     -0.048909     -0.018290
Li	      4.25095      6.28925     10.18464         0.014300     -0.018183     -0.137179
Li	      2.09343      2.11381      4.10239        -0.060285      0.004552     -0.010970
Li	      6.18209      4.33347     10.26201        -0.090599      0.034963     -0.021777
Li	      8.40293      6.43538     10.29401         0.018800     -0.007710     -0.004607
Li	      6.30740      8.50781      6.32338        -0.042251      0.041868      0.117895
Li	      8.28369      8.54529      8.42657        -0.116659      0.081647     -0.027810
Li	      6.21410      6.54328      8.42044        -0.090207      0.113406      0.013852
Sc	      0.09852      6.25627      6.16691         0.193646     -0.142174     -0.128028
Sc	      8.42422      8.48422     12.37365         0.110159     -0.155004     -0.101523
Mn	      6.28871      4.27820      6.24264        -0.100937      0.003398     -0.041755
Fe	      2.10323      4.21928      2.25082        -0.017617     -0.097445      0.056411
Fe	      4.20612      6.38238      6.36639        -0.152464      0.120534      0.154849
Co	      4.20215      6.35504      2.12703         0.170195     -0.068755      0.111536
Co	      8.33460      6.43574      6.22795        -0.302483     -0.178832     -0.102508
Ni	      6.29875      8.48281     10.24471         0.143140     -0.046082     -0.114803
Ni	      4.20715      4.26904      4.15817        -0.084161      0.217303     -0.029573
O	      6.26339      8.51476      8.29774         0.020316      0.000601     -0.140332
O	      1.94770      2.21295      2.07974        -0.007510     -0.026340     -0.068034
O	      4.13466      4.39439      2.05672         0.000437      0.038479     -0.142690
O	      4.20843      2.31527      4.32826         0.040124     -0.403813      0.303405
O	      6.17957      4.19819      4.32187         0.233196      0.097103      0.238021
O	      6.28035      2.23846      6.33340        -0.100641     -0.023844      0.026656
O	      8.29713      4.28606      6.25157         0.037643      0.096837     -0.052143
O	      2.25929      4.25514      4.14963        -0.223611     -0.039340      0.068225
O	      4.20205      6.21571      4.06994         0.056874      0.246273     -0.033629
O	      4.37136      4.28848      6.27071         0.051119     -0.041165      0.094409
O	      6.28651      6.16588      6.26139         0.149870     -0.035616     -0.000178
O	      6.36549      4.11477      8.22084        -0.022958     -0.005945     -0.098318
O	      8.53266      6.29694      8.15362         0.102148      0.214272     -0.115017
O	      2.14048      6.39303      6.23490        -0.078591      0.100733     -0.044065
O	      4.18844      8.44114      6.19775        -0.095435      0.102448     -0.032599
O	      4.17544      6.40709      8.22976        -0.005363      0.019370     -0.055936
O	      6.26344      6.44385     10.42004         0.007170     -0.110508      0.172896
O	      8.34187      8.52587     10.39377         0.071596     -0.007359      0.210982
