# total energy = -221.28899177 eV
 
CRYSTAL
PRIMVEC
0.026046 6.341334 6.335030 
6.258217 0.042919 6.318091 
4.176889 4.220970 0.023815 
PRIMCOORD
36 1
Li	      2.13921      8.36449      6.28925         0.120720     -0.050220     -0.036280
Li	      4.19786      6.35192      2.18884        -0.081135      0.019397      0.075995
Li	      6.19278      6.38796      4.33045        -0.011186      0.105150      0.061915
Li	      6.27145      4.28912      6.30932         0.005944      0.044144      0.011558
Li	      4.22679      8.34299      4.32366         0.043572     -0.169521      0.086489
Li	      2.18479      6.31400      4.35523         0.112680     -0.028537      0.102512
Li	      2.06480      4.19910      6.22170        -0.067237     -0.060368     -0.100792
Li	      4.18092      6.46042      6.23403        -0.029589      0.195783     -0.042327
Li	      6.26914      6.36627      8.39783        -0.059213      0.038700     -0.060166
Sc	      8.24178      4.24551      8.50310         0.065239     -0.048601     -0.054949
Sc	      4.23266      4.25314      8.44347        -0.044760     -0.020630     -0.078819
Mn	      8.30552      6.36620      6.31750        -0.144970      0.040613      0.124342
Fe	      0.14773      6.32561      6.25597        -0.122180     -0.319528      0.291247
Fe	      4.16852      4.38316      4.29063        -0.055879     -0.158432     -0.084125
Co	      2.06089      0.06191      2.08367         0.067474     -0.038239     -0.017083
Co	      4.20000      8.42074      8.33188         0.210664      0.059479      0.519814
Co	      6.24026      2.13930      4.25883        -0.071327     -0.116348     -0.293368
Cu	      8.34158      4.22234      4.25961         0.004840     -0.071418     -0.112092
O	      4.21802      6.23346      4.25459         0.039990      0.255933     -0.014285
O	      2.22614      2.11101      2.11958         0.299100     -0.088278     -0.124922
O	      4.18123      4.17636      2.11488        -0.164875     -0.062892      0.047039
O	      4.29217      2.17925      4.30698        -0.019335     -0.070426      0.080476
O	      6.21843      4.09338      4.17936         0.075797     -0.066175     -0.031563
O	      6.15013      2.08293      6.19840         0.020486      0.128264      0.014750
O	      8.39265      4.40051      6.29130        -0.016946      0.065420      0.002877
O	      2.20444      4.25789      4.17118        -0.087226      0.044678      0.092194
O	      4.18893      4.09674      6.31111         0.024669     -0.041649      0.005175
O	      6.46142      6.34511      6.31984         0.079557     -0.022367     -0.071217
O	      6.23874      4.23453      8.48919         0.007760     -0.031967      0.036142
O	      8.36376      6.37021      8.25111         0.022273      0.002793     -0.017652
O	      2.05670      6.35774      6.41253         0.213236      0.007133      0.166104
O	      4.19698      8.53602      6.41142        -0.019004      0.175948     -0.479339
O	      4.18170      6.38718      8.53552        -0.083177      0.172341      0.091306
O	      6.19309      8.51844      8.62967        -0.209905     -0.064226     -0.067477
O	      6.23933      6.53039     10.61953        -0.038178      0.163391     -0.217568
O	      8.20221      8.51331     10.54941        -0.087878      0.010654      0.094090
