# total energy = -222.16397935 eV
 
CRYSTAL
PRIMVEC
-0.004745 6.285343 6.418820 
6.077742 0.048444 6.364458 
4.088191 4.189754 -0.003275 
PRIMCOORD
36 1
Li	      4.10221     10.44936      6.45719         0.015765      0.026021      0.126715
Li	      2.05765      0.08061      2.11773        -0.125371      0.055152     -0.030390
Li	      4.00792      2.13463      2.03118        -0.058763      0.168338     -0.059713
Li	      4.03168      0.05971      4.22682         0.002149      0.009493      0.033465
Li	      4.13191      6.24147      2.16447         0.020504     -0.105014      0.015546
Li	      4.07597      4.28800      4.20503        -0.010437      0.005173     -0.152686
Li	      6.08482      4.20120      6.34259         0.023430      0.030916      0.010992
Li	      4.10981      8.34921      4.32788         0.027502     -0.001462      0.008957
Li	      4.02511      6.33981      6.37925         0.021751     -0.029412     -0.001640
Sc	      6.08073      2.29856      4.20514        -0.033094      0.113124      0.115997
Sc	      5.99382      6.30174      8.53056         0.155468     -0.231375     -0.074746
Mn	      4.08020      2.08443      6.36800        -0.161834      0.017710     -0.004113
Fe	      2.09777      4.08531      2.15880        -0.125457     -0.113453      0.046902
Fe	      2.17389      6.27144      4.38683        -0.026871     -0.135050     -0.072956
Co	      2.15445      8.37901      6.45625        -0.149382      0.031229      0.128087
Co	      6.06989      6.26341      4.25199        -0.129582     -0.049384     -0.024827
Co	      6.01959      8.40453      6.40279        -0.100136      0.343962     -0.070601
Co	      4.10008      4.24647      8.51329        -0.085488     -0.256423     -0.272219
O	      2.02380      2.12813      2.25103         0.045398     -0.237837     -0.113103
O	      3.88621      4.15408      2.16820         0.859368      0.005170     -0.018715
O	      3.96211      2.08027      4.44559         0.099140      0.001911      0.131179
O	      6.08423      4.33095      4.26224         0.012585     -0.024860      0.036264
O	      5.99837      2.16197      6.31218        -0.023506     -0.011791     -0.128248
O	      8.12469      4.29721      6.49836         0.008169      0.138312     -0.165168
O	      2.02775      4.13039      4.21772        -0.086171      0.067690      0.182038
O	      4.10403      6.26792      4.27928         0.088212      0.075099      0.038753
O	      3.90054      4.04493      6.43509         0.233367      0.019775      0.889879
O	      6.16022      6.35987      6.26881         0.176343     -0.143152      0.218291
O	      6.20198      4.24065      8.47856        -1.152177      0.141091      0.012683
O	      8.16376      6.31458      8.37419        -0.029231      0.807035     -0.022046
O	      2.03064      6.26220      6.32597         0.150920      0.089677      0.011846
O	      4.13386      8.41458      6.40223        -0.058017     -0.186516      0.030109
O	      4.03511      6.21751      8.50775        -0.090338     -0.769899     -0.028295
O	      6.08111      8.40255      8.53640         0.540174      0.093757     -0.100300
O	      6.23588      6.42592     10.54562        -0.048398     -0.007895     -0.032171
O	      8.16520      8.37532     10.69119         0.014009      0.062887     -0.665767
