# total energy = -138.00549028 eV
 
CRYSTAL
PRIMVEC
0.000013 0.000070 -4.062945 
-2.032455 -2.031445 0.000006 
-4.062983 -0.000307 0.000013 
PRIMCOORD
24 1
Li	     -1.01583     -5.17553     -1.01593         0.005652      0.081229     -0.000365
Li	     -3.04754     -1.07753     -3.04821         0.005024     -0.000862      0.001782
Li	     -3.04708     -9.90783     -3.04815         0.000618     -0.084122      0.002553
Li	     -1.01448     -3.00048     -3.04806        -0.004075      0.063170     -0.000118
Li	     -5.07884    -12.08345     -3.04797        -0.000030     -0.061676      0.000778
Li	     -3.04659     -7.54190     -5.07903         0.000137      0.000186     -0.000470
Mn	     -3.04651     -5.34490     -3.04749        -0.004139      0.096132     -0.002622
Mn	     -5.07863     -9.73921     -5.07882         0.002555     -0.081835     -0.002142
Mn	     -5.07802     -7.54209     -3.04773        -0.000868     -0.003057      0.002552
Ni	     -1.01504     -1.07700     -1.01672         0.000804     -0.012002      0.006137
Ni	     -3.04653     -3.18935     -1.01548         0.000609      0.172152     -0.004291
Ni	     -3.04699    -11.89437     -5.07935        -0.006087     -0.171409      0.000695
O	     -3.04771    -12.06310     -3.04771         0.003569      0.312843      0.000377
O	     -5.07840     -7.75298     -5.07932         0.000951     -0.054746      0.004176
O	     -3.04830     -3.45734     -3.04746         0.010402     -0.189107      0.001679
O	     -1.01473     -5.59129     -3.04758        -0.006127     -0.047378     -0.000328
O	     -3.04604     -1.18991     -1.01574        -0.004544      0.115074     -0.002357
O	     -3.04696     -9.81646     -5.07929        -0.002405      0.149717     -0.001541
O	     -1.01506     -3.02094     -1.01602        -0.002544     -0.298545     -0.002997
O	     -5.07897    -11.62532     -5.07864         0.005309      0.166515     -0.000686
O	     -3.04683     -7.33158     -3.04768         0.005002      0.054370      0.001023
O	     -1.01415     -0.96475     -3.04754        -0.004780     -0.107802     -0.002706
O	     -5.07805     -9.49300     -3.04725        -0.000391      0.053609     -0.002938
O	     -3.04605     -5.26741     -1.01624        -0.004642     -0.152457      0.001810
