# total energy = -219.39926567 eV
 
CRYSTAL
PRIMVEC
0.045471 6.287509 6.231382 
6.324335 0.010235 6.266709 
4.234704 4.233578 -0.011872 
PRIMCOORD
36 1
Li	      4.23995      0.04417      4.19676         0.058704     -0.022353     -0.000348
Li	      6.29619      2.11492      4.23773         0.037022     -0.028156     -0.010811
Li	      6.31350      2.17075      8.33975        -0.023770      0.024064     -0.017892
Li	      6.37762      6.31937      4.27990        -0.027213      0.028518     -0.027451
Li	      4.24779      4.19359      4.30382        -0.033667      0.027192     -0.005948
Li	      4.23434      2.16050      6.13191         0.049111      0.022837      0.042270
Li	     10.57727      8.41423     10.38173        -0.006664     -0.020905     -0.011160
Li	      4.23554      4.25167      8.32193        -0.056240      0.051601      0.043188
Li	      6.37515      6.26621      8.30358         0.019297     -0.010425     -0.001874
Sc	      6.35038      4.22330      2.27069         0.021165      0.019921      0.052359
Sc	      4.29453      2.06442      2.24912         0.005764     -0.054556      0.105441
Mn	      8.40799      4.23120      8.36649         0.049583      0.114434      0.103577
Fe	      6.29365      0.10424      6.17718         0.092424     -0.104854     -0.045242
Fe	      8.47900      8.44108     12.37149         0.121799     -0.040887     -0.073141
Fe	      8.51847      6.34352     10.32150        -0.153145      0.003787      0.011230
Co	      4.24303      6.29965      6.21541        -0.010170     -0.013524     -0.081307
Cu	      6.29362      4.25676      6.19590        -0.071177     -0.004272      0.051235
Ni	      6.41172      8.33990      6.19096        -0.100405      0.073863     -0.058600
O	      6.54034      4.20600      8.19099         0.047003     -0.006809      0.032967
O	      2.14210      2.18857      2.00414         0.001565      0.022212     -0.006116
O	      4.17806      4.19915      1.94251        -0.052320     -0.002866      0.065522
O	      4.22719      2.09037      4.18520        -0.005431      0.021359     -0.070872
O	      6.34861      4.22624      4.23072        -0.016564      0.017766     -0.055858
O	      6.43651      2.07463      6.26601        -0.065908      0.184326      0.015381
O	      8.52066      4.17658      6.35783        -0.095966      0.063332      0.012048
O	      2.11859      4.26750      4.02361        -0.008535     -0.161503     -0.126658
O	      4.12629      6.30575      4.30109         0.259629     -0.042023      0.092834
O	      4.21825      4.37255      6.27343         0.154435     -0.058779      0.043750
O	      6.14733      6.33358      6.22472        -0.016149     -0.182815      0.054110
O	      8.47541      6.13486      8.36514         0.000509     -0.106880     -0.215965
O	      2.17139      6.31770      6.23076         0.017406     -0.004663      0.084773
O	      4.24525      8.35104      6.21853        -0.012945      0.008394      0.068320
O	      4.20471      6.31569      8.21768        -0.027233      0.011766     -0.015201
O	      6.37307      8.47910      8.22738        -0.029611      0.038907      0.110223
O	      6.47188      6.28894     10.53757        -0.100743     -0.026086     -0.108788
O	      8.51053      8.33496     10.44209        -0.021561      0.158077     -0.055994
