# total energy = -219.34291018 eV
 
CRYSTAL
PRIMVEC
-0.022773 6.577246 6.386041 
6.091807 0.035532 6.328722 
4.099117 4.384700 -0.014955 
PRIMCOORD
36 1
Li	      4.09390      4.36520      0.02071        -0.030806     -0.003190     -0.059723
Li	      4.12132      2.24432      2.14314         0.023944     -0.079024      0.064764
Li	      6.00518      2.32110      4.32360        -0.025147      0.043852      0.004798
Li	      4.11168      4.22656      4.27512         0.009156     -0.074473      0.076027
Li	      3.99528      2.28828      6.31000         0.019823      0.009904     -0.067387
Li	      6.07169      4.47579      6.35394        -0.040911      0.049371      0.019042
Li	      4.08528      6.53818      6.44428         0.026961     -0.092352      0.067943
Li	      3.99498      4.53705      8.35629        -0.020111      0.102287     -0.027269
Li	      6.08598      6.52688      8.38321        -0.067217      0.003013     -0.001738
Sc	      6.09304      2.20386      8.36821         0.001417      0.136178      0.001251
Sc	      8.07352      6.61080     10.61944        -0.097853     -0.053571      0.061092
Mn	      8.15372      8.85634     12.68159         0.081166      0.178127     -0.154901
Fe	      4.04543      0.14023      4.16343         0.384316      0.188073      0.265635
Fe	      6.08312      4.41907     10.54138        -0.030348      0.104441      0.153365
Fe	      6.15769      8.55882      6.47236        -0.175618     -0.130101     -0.305260
Co	      6.15093      6.52340      4.36102         0.144924      0.030831      0.113116
Cu	      6.07881     10.88896      8.48966         0.153593      0.037385      0.055760
Cu	      8.19256      4.45596      8.37546        -0.026060      0.056149     -0.078286
O	      3.95285      6.56544      8.70327        -0.195143     -0.153526     -0.886008
O	      6.08861      8.70290      8.25242        -0.045711      0.140670      0.443959
O	      2.12412      2.44317      1.89790         0.018318      0.074011      0.045309
O	      4.12378      4.46511      2.12456         0.069582     -0.094703     -0.082275
O	      4.03858      2.10571      4.25330        -0.065457      0.163283     -0.065994
O	      6.20167      4.41130      4.10887        -0.667369     -0.068817     -0.212885
O	      6.26098      2.28073      6.32133         0.027142      0.006246      0.101591
O	      8.15854      4.24929      6.05736        -0.007455     -0.275569      0.762643
O	      1.98290      4.45099      4.53235         0.101629      0.093723     -0.247520
O	      4.10775      6.70409      4.16936        -0.057824     -0.061959     -0.115865
O	      3.87401      4.41222      6.38509         0.297585     -0.014105      0.013289
O	      6.07009      6.60389      6.34730        -0.055377     -0.026958     -0.006272
O	      6.16400      4.36456      8.56421        -0.055063     -0.105412     -0.127542
O	      8.15817      6.44474      8.52707         0.053542     -0.105607     -0.035827
O	      2.05048      6.85767      6.43073        -0.051050      0.027606      0.129949
O	      4.07919      8.79728      6.25561        -0.183076      0.045864      0.049749
O	      5.99738      6.48662     10.55008         0.523523     -0.091394     -0.027310
O	      8.15632      8.72955     10.71173        -0.039026     -0.060254      0.072781
