# total energy = -219.51303412 eV
 
CRYSTAL
PRIMVEC
-0.018302 6.256412 6.293054 
6.371656 -0.018493 6.293289 
4.253442 4.176783 -0.018135 
PRIMCOORD
36 1
Li	      4.32936      8.22033      8.29061         0.041310     -0.098255     -0.045872
Li	      2.12441      4.21667      2.18807         0.007630      0.012312      0.026271
Li	      4.13350      4.18833      4.23738        -0.055988     -0.013153      0.036893
Li	      0.09626      4.20275      4.18803         0.058330      0.010569     -0.012475
Li	      2.05229      6.18301      4.24322        -0.028989     -0.045640      0.046799
Li	      6.28397      8.32947      6.20620        -0.024311     -0.009758     -0.030557
Li	      4.26369      6.32487      6.31114         0.003742      0.042768      0.032612
Li	      4.26794      4.16006      8.40622         0.027400     -0.060928      0.007912
Li	      6.23881      6.29966      8.43823        -0.116086      0.023534      0.000800
Sc	      2.25825      8.37771      6.23235         0.020449     -0.002724      0.045963
Sc	      2.20643      6.15903      8.36101        -0.031583      0.044041     -0.067085
Mn	      2.10015      2.16919      4.20526        -0.014342      0.121215     -0.164283
Fe	      6.39682      8.21432     10.40686        -0.056114      0.175554      0.229354
Fe	     10.54094      6.25647      8.44764         0.142888      0.108624     -0.025670
Fe	      6.27388      4.20411      6.31204        -0.004464     -0.031176      0.033903
Co	      8.47018      6.27610      6.31250        -0.118066     -0.048597     -0.001123
Ni	      0.02161      6.24970      6.27956         0.043327      0.020856      0.046765
Ni	      4.25783      6.23638     10.42743         0.018389     -0.017732      0.030503
O	      2.05938      2.08086      2.19813         0.074561     -0.002637      0.059903
O	      4.26509      4.42019      2.02319         0.061464     -0.249585      0.021913
O	      4.13667      2.06630      4.34107        -0.044369      0.070515      0.076508
O	      6.39442      4.21360      4.22211        -0.092995      0.042957     -0.002417
O	      6.42422      2.12657      6.24319        -0.023302      0.047956     -0.084178
O	      8.45390      4.28176      6.24526        -0.103908      0.081868      0.069024
O	      2.13601      4.00287      4.19730        -0.022618     -0.097995      0.047846
O	      4.42215      6.27132      4.08100         0.082449     -0.015776      0.204833
O	      4.32827      3.97015      6.28883        -0.068620     -0.016184     -0.013449
O	      6.30822      6.17769      6.11189        -0.009308      0.089835      0.034037
O	      6.37193      3.94985      8.29211         0.014954      0.338405      0.022876
O	      8.62820      6.22577      8.22391        -0.155902      0.005838     -0.055685
O	      2.11205      6.31365      6.31579         0.105674      0.009019     -0.029965
O	      4.20698      8.42458      6.31167         0.121240     -0.110082      0.006393
O	      4.20316      6.23465      8.40984         0.033193     -0.054015     -0.177517
O	      6.28483      8.33658      8.51674        -0.042269     -0.059340     -0.182409
O	      6.32304      6.29878     10.52910         0.074038     -0.215641     -0.164007
O	      8.36914      8.34236     10.50264         0.082196     -0.096647     -0.024416
