# total energy = -222.57311315 eV
 
CRYSTAL
PRIMVEC
0.022390 6.346979 6.236913 
6.293926 0.023025 6.236573 
4.200218 4.235267 0.010684 
PRIMCOORD
36 1
Li	      6.40820     10.50804      8.39229         0.086638      0.031696     -0.053447
Li	      8.25605      4.24614      4.11802         0.008653     -0.258912      0.110246
Li	      6.38106      8.55692     10.37599         0.274508     -0.043051      0.145169
Li	      6.35213      2.23054      8.28675         0.014569      0.013622     -0.091811
Li	      4.30574      4.25003      4.14090         0.047651      0.029416      0.059942
Li	      6.29780      4.22590      6.21577         0.052481     -0.124922     -0.132087
Li	      0.06738      4.18489      4.12722        -0.305644      0.013641      0.169501
Li	      4.20420      6.29155      6.28093        -0.086409      0.012669     -0.010803
Li	      4.14634      4.37448      8.26260        -0.130275      0.066025      0.209745
Sc	      2.27328      6.27427      4.14940        -0.111773      1.115402      0.455016
Sc	      6.22803      6.27215      8.35993        -0.193231      0.375095      0.336424
Mn	      6.23648      6.29501      4.17915        -0.162403     -0.307791     -0.118077
Fe	      6.28778      0.05311      6.22622        -0.007289      0.055103     -0.477867
Fe	      4.23502      2.11808      2.13752        -0.111702     -0.285201     -0.177166
Fe	      4.25604      2.24406      6.18787         0.322931     -0.334849     -0.064232
Co	      8.39537      8.52672     12.36287        -0.005031     -0.135655      1.175171
Co	      2.08901      4.20827      2.08878        -0.340375     -0.040943     -0.172900
Cu	      6.32100      8.48266      6.31698        -0.311877      0.253078     -0.160230
O	      4.05611      4.13712      6.29093         0.401108      0.139976     -0.015565
O	      2.12051      2.26118      2.12933         0.019066      0.016626      0.204916
O	      4.04422      4.14916      2.02125        -0.218217      0.148731      0.336293
O	      4.01270      2.10356      4.17575        -0.034368      0.107361     -0.051391
O	      6.26641      4.44989      4.13653        -0.093241      0.155894      0.019457
O	      6.25770      2.08555      6.20293        -0.335668      0.019180      0.076728
O	      8.44695      4.22653      6.35858         0.059680      0.388439     -0.579481
O	      2.11148      4.14471      4.04909         0.077355     -0.204388      0.659190
O	      4.31218      6.34198      4.18870         0.247790     -0.044909     -0.079065
O	      6.35651      6.32610      6.12053        -0.071978      0.024588      0.184003
O	      6.40772      4.26399      8.29783         0.555459     -0.214237     -0.026020
O	      8.39928      6.21713      8.26496        -0.067098     -0.011575      0.043302
O	      2.06465      6.46298      6.25315         0.024118     -0.459803     -0.132077
O	      4.26839      8.56281      6.31741         0.061237     -0.022074      0.087166
O	      4.22065      6.44526      8.30685         0.177479      0.042564     -0.021590
O	      6.23375      8.45897      8.40092         0.007202     -0.042191     -0.230134
O	      6.43127      6.34474     10.43204        -0.000212     -0.100770     -0.229476
O	      8.44614      8.45278     10.55376         0.148864     -0.377834     -1.448853
