# total energy = -224.07971153 eV
 
CRYSTAL
PRIMVEC
0.005540 6.354617 6.298597 
6.273086 -0.017411 6.321525 
4.151265 4.220937 0.019280 
PRIMCOORD
36 1
Li	     10.37997      4.24177      6.36072        -0.036264      0.032421      0.030455
Li	      2.08218      4.26336      2.24433        -0.077607      0.025776      0.006743
Li	      6.14160      6.53966      4.33433        -0.037246      0.028732     -0.002264
Li	      4.03045      4.27645      4.33470         0.037076     -0.005891     -0.002677
Li	      8.27460      6.37152      6.32495        -0.025770      0.008096      0.063659
Li	      0.14443      4.10674      4.14435        -0.060332     -0.034036     -0.142755
Li	      2.17367      4.07114      6.19290         0.073673     -0.044412      0.032143
Li	      4.26489      6.27574      6.20436        -0.028847     -0.017981      0.070693
Li	      4.24320      4.12105      8.31617         0.013089     -0.105812      0.018305
Sc	      8.41627      8.55644     12.58390         0.036545      0.002372     -0.061317
Sc	      2.11270      6.33893      8.32247        -0.040078      0.030871     -0.071633
Mn	      6.23043      2.08519      4.25041         0.093651     -0.077559      0.002794
Fe	      4.15067      2.17915      2.08712        -0.034496      0.026432      0.182784
Fe	      6.12365      4.31835      6.37974         0.166879     -0.016691     -0.082197
Fe	      2.14058      6.11255      4.25267        -0.099030      0.321231     -0.037554
Co	      4.19789      6.35249     10.50291         0.042065     -0.000480      0.010124
Co	      4.09186      6.33258      2.17511        -0.061779     -0.000043     -0.081611
Co	      6.29053      6.28904      8.35933        -0.006099      0.099113      0.253971
O	      2.04973      2.08818      2.10242         0.019288     -0.087423     -0.006227
O	      4.18857      4.26125      2.16350         0.068941     -0.129664     -0.022648
O	      4.30641      1.95850      4.15693        -0.053960     -0.026101      0.038042
O	      6.39338      4.05836      4.23190        -0.027740     -0.023643      0.010286
O	      6.27092      2.13324      6.22791        -0.041265     -0.024965     -0.025956
O	      8.28385      4.23156      6.14632         0.033157     -0.017363     -0.064904
O	      2.05029      4.27160      4.25360        -0.016326     -0.268058     -0.005424
O	      4.08209      6.37056      4.06600         0.175948     -0.086352     -0.019649
O	      4.24819      4.23358      6.29182        -0.248033     -0.001783     -0.002598
O	      6.25603      6.26653      6.38718         0.020028      0.078383      0.293855
O	      6.27724      4.01321      8.33728         0.156787      0.159655      0.136784
O	      8.42119      6.30655      8.57700        -0.349639     -0.032177     -0.068734
O	      2.10279      6.44028      6.26088         0.004624      0.031213      0.008337
O	      4.15708      8.50187      6.47889         0.017859      0.051371     -0.125005
O	      4.20839      6.44525      8.55680         0.230232     -0.007041     -0.032307
O	      6.20132      8.48976      8.59436         0.056853     -0.059082      0.055823
O	      6.20883      6.48556     10.47337        -0.005908      0.114193     -0.358567
O	      8.19343      8.56552     10.50143         0.003722      0.056699     -0.000771
