# total energy = -217.17985934 eV
 
CRYSTAL
PRIMVEC
0.042050 6.277947 6.230338 
6.459944 0.016715 6.255428 
4.293626 4.189369 0.023643 
PRIMCOORD
36 1
Li	      6.50887      0.10325      6.28801        -0.010849     -0.048751      0.051595
Li	      6.41353      4.23541      2.13113        -0.063999      0.001221      0.019105
Li	      4.34649      8.35915      8.32440        -0.015318      0.076038      0.021701
Li	      6.39670      2.09871      4.20109        -0.021414      0.005459     -0.082633
Li	      4.37228      4.21791      4.16317         0.008882     -0.023953     -0.016576
Li	      4.36781      2.16441      6.19876        -0.010640      0.053628     -0.027871
Li	      6.42463      4.13449      6.24648        -0.024971      0.000493     -0.050896
Li	      2.19745      6.28861      4.18265         0.015951      0.008730     -0.019038
Li	      4.30628      6.29094      6.28259        -0.007262     -0.019341      0.054306
Sc	      4.27391      8.35376      4.21705        -0.046141      0.136045      0.197718
Sc	      2.18338      4.30059      6.26747         0.153060      0.160428      0.064422
Mn	      8.53926      4.22675      4.20466         0.111897     -0.164543     -0.028897
Fe	      8.72942      4.24564      8.26528         0.273262     -0.197788      0.079112
Fe	      6.46014      6.21167      4.24580         0.283909     -0.033738      0.093848
Fe	      4.31127      4.18922      8.25125        -0.210770     -0.223587      0.134713
Cu	      6.44219      6.31498      8.28034         0.147005     -0.090685     -0.064193
Cu	      2.15981      8.30458      6.26705         0.084114      0.069012     -0.122366
Cu	      0.05813      2.02559      2.02447        -0.133079      0.234575      0.232394
O	      6.56826      2.09172      6.35137         0.026629      0.011530      0.161269
O	      2.12188      2.19193      2.16323         0.191025      0.240454     -0.037999
O	      4.20766      4.24866      2.12170        -0.022841     -0.463712     -0.032704
O	      4.20698      1.91957      4.16981         0.049343      0.045326      0.141131
O	      6.61476      4.24367      4.20548        -0.036485     -0.093673      0.104808
O	      8.63368      4.07067      6.21137        -0.071381     -0.214778     -0.049959
O	      2.12115      4.15110      4.10671        -0.121755      0.080207      0.212434
O	      4.44429      6.27539      4.09183        -0.229740      0.027759     -0.176504
O	      4.28177      4.21390      6.34500         0.003354      0.056610     -0.310233
O	      6.46016      6.36412      6.24568        -0.007139     -0.107967     -0.054581
O	      6.48003      4.23452      8.32006         0.106746      0.199265     -0.206571
O	      8.73909      6.27370      8.35916        -0.478431      0.140048     -0.111087
O	      2.18783      6.36751      6.21266         0.016306     -0.051570     -0.026082
O	      4.36631      8.37481      6.24664        -0.069362     -0.022353     -0.102379
O	      4.26082      6.16866      8.49544         0.185728      0.309356     -0.179727
O	      6.58591      8.29618      8.34809        -0.079489      0.056867     -0.084351
O	      6.26893      6.29029     10.28772        -0.080446     -0.096675      0.233885
O	      8.63130      8.48118     10.34815         0.084299     -0.059936     -0.017791
