# total energy = -224.62507336 eV
 
CRYSTAL
PRIMVEC
-0.026068 6.424859 6.270165 
6.213559 0.015365 6.228922 
4.156662 4.270000 -0.003913 
PRIMCOORD
36 1
Li	      0.07078      6.38933      6.32336         0.089018     -0.000473     -0.023141
Li	      2.10305      8.47685      6.29215         0.022697     -0.060557     -0.004749
Li	      2.06703      6.45775      8.25948        -0.006596     -0.021985     -0.007749
Li	      8.22702      4.30413      4.21644         0.031799     -0.016535      0.078893
Li	      6.26351      6.33163      4.14029        -0.012493     -0.033257     -0.029728
Li	      4.12743      4.30484      4.18564         0.003049     -0.008819     -0.061385
Li	      2.07721      6.39345      4.25766        -0.028288     -0.002303     -0.002620
Li	      2.05295      4.41043      6.23834        -0.001724     -0.022190     -0.018028
Li	      4.10680      4.31545      8.30947        -0.005816     -0.019716      0.003631
Sc	      6.30385      2.24416      4.15956        -0.019880      0.032449     -0.026017
Sc	     10.30955      8.60303     10.46755         0.022426      0.021778      0.110515
Mn	      4.07363      6.34092      6.22757        -0.047476     -0.028287     -0.006852
Fe	      4.23009      6.36046      2.14886        -0.040306      0.092548     -0.064269
Fe	      2.14786      4.26653      2.14934         0.074263     -0.040148     -0.179776
Fe	      4.07047      2.14592      6.15961        -0.005009      0.122335      0.016487
Fe	      6.15770      6.50526      8.36629         0.032490     -0.102136     -0.020774
Co	      6.19800      4.29953      6.23995         0.003549     -0.030298     -0.098792
Cu	      4.08830      2.13190      2.11470        -0.031593      0.066187      0.071703
O	      2.23346      6.35829      6.25924         0.034461      0.059272      0.010632
O	      2.07896      2.21864      2.06925         0.003960     -0.020295     -0.029276
O	      4.13344      4.44432      2.00918         0.069355      0.016030      0.005002
O	      4.14603      2.15808      4.23112        -0.025193     -0.017996     -0.082966
O	      6.22658      4.27155      4.31440        -0.017390      0.000705      0.023593
O	      6.13381      2.32153      6.30667         0.030048      0.020119     -0.034531
O	      8.15527      4.40516      6.30230        -0.020765     -0.041446      0.014929
O	      2.01680      4.30831      4.05775        -0.025279      0.047569      0.162163
O	      4.13355      6.45456      4.16934         0.012633      0.034530      0.148327
O	      4.23171      4.34471      6.22682        -0.006968     -0.003836     -0.004836
O	      6.16688      6.25772      6.28852        -0.109634     -0.002903     -0.002522
O	      6.24940      4.24975      8.25671        -0.022945      0.052928     -0.005935
O	      8.25105      6.41248      8.19729        -0.032468      0.026340      0.073612
O	      4.14819      8.32652      6.28045         0.009194     -0.060269     -0.021296
O	      4.19359      6.30754      8.13403        -0.117263     -0.102783     -0.072937
O	      6.05939      8.46418      8.36003         0.112590      0.078647     -0.058033
O	      6.18180      6.43867     10.34533        -0.010492     -0.005794      0.094088
O	      8.27421      8.59470     10.39256         0.036042     -0.029412      0.042637
