# total energy = -93.08915362 eV
 
CRYSTAL
PRIMVEC
2.060924 2.061600 -0.000114 
6.251304 -4.192027 6.185293 
2.093193 -2.093637 -4.131106 
PRIMCOORD
16 1
Li	      3.04980     -0.98623     -3.06060         0.003960     -0.001497     -0.010865
Li	      3.18352      0.93687     -1.07019        -0.002287      0.005314      0.006978
Li	      5.19547     -1.07630      3.09140         0.003052      0.001862      0.003803
Li	      5.20968     -3.15559      1.02390         0.002937      0.001282      0.002792
Mn	      3.12190     -1.06203      1.03281        -0.005193      0.004174      0.002616
Mn	      7.30325     -5.24222      1.02058        -0.003833      0.002024     -0.008663
Ni	      5.19593     -1.07507     -1.04609         0.004121     -0.002156     -0.008309
Ni	      7.28931     -3.16696      3.09883        -0.000039      0.001806      0.005120
O	      5.18385     -3.12431     -1.17445         0.125304     -0.128324     -0.043188
O	      5.09006     -0.96848      1.02742        -0.017200      0.013142      0.114177
O	      7.16083     -3.03759      5.16786        -0.033836      0.031863      0.125752
O	      7.29036     -5.22889      2.95958         0.107032     -0.105599     -0.024674
O	      3.13436     -1.07454     -0.90629        -0.103319      0.101911      0.027176
O	      3.23202      0.88884      1.01654         0.033835     -0.034000     -0.126207
O	      7.39596     -3.27384      1.02538         0.012610     -0.017412     -0.112584
O	      5.24063     -3.17973      3.22784        -0.127146      0.125609      0.046076
