# total energy = -223.65267073 eV
 
CRYSTAL
PRIMVEC
-0.003468 6.409034 6.218626 
6.362294 0.003443 6.212029 
4.217970 4.244357 0.025959 
PRIMCOORD
36 1
Li	      8.35733      2.19579      6.13956        -0.016240      0.070813      0.001372
Li	      8.36967      4.23629      4.26993         0.009018      0.001803      0.045191
Li	      6.41514      2.18674      4.20095        -0.014258      0.018595      0.018489
Li	      6.39861      6.27611      4.24970         0.015138     -0.007920      0.016564
Li	      4.33752      4.19861      4.26699         0.020415     -0.049650      0.002052
Li	      4.28031      2.07544      6.07323         0.058032     -0.021172     -0.020558
Li	      6.32772      4.30645      6.10361        -0.037484      0.006363      0.031149
Li	      8.40975      6.47903     10.36848        -0.014910      0.025641     -0.006183
Li	      6.42970      6.39261      8.28954         0.006798     -0.005052      0.007785
Sc	      4.22343      6.37811      2.14965         0.000641      0.047826     -0.046011
Sc	     10.44702      8.55642     10.45249        -0.005220     -0.001633     -0.056414
Mn	      6.37240     10.63792      8.35427        -0.058230      0.071779      0.222396
Fe	      6.31425      0.17213      6.09000         0.020617     -0.050863      0.137273
Fe	      4.24228      2.08011      2.26652        -0.043649      0.026270     -0.170227
Fe	      8.40493      4.39134      8.31393         0.080768     -0.116236      0.027351
Fe	      2.19860      4.18940      6.11152        -0.005154      0.012988     -0.064821
Co	      4.21048      6.39599      6.20379         0.054034     -0.024427     -0.092444
Ni	      8.42639      8.50012      8.32124         0.036682     -0.046967     -0.018086
O	      2.15933      1.99195      2.06121        -0.004288     -0.082578      0.000470
O	      4.32967      4.20397      2.01978         0.031087     -0.004872      0.012848
O	      4.23653      2.10765      4.08574         0.009408     -0.011788      0.222657
O	      6.35368      4.24108      3.97307         0.035314     -0.037894     -0.208623
O	      6.37845      2.07133      6.27108        -0.004641      0.070474      0.012485
O	      8.57688      4.22002      6.38779        -0.005106     -0.015015     -0.096170
O	      2.09487      4.26215      4.08858        -0.054058      0.004964      0.040878
O	      4.21036      6.41270      4.23873        -0.018408      0.040324      0.073941
O	      4.16922      4.43897      6.26306         0.083024      0.103145     -0.123212
O	      6.15521      6.48932      6.27192        -0.083868     -0.098474      0.017587
O	      6.42570      4.21598      8.30509        -0.046093     -0.018592     -0.003420
O	      8.50441      6.33514      8.28646         0.029071      0.105605      0.008893
O	      2.15256      6.32217      6.31235         0.025969     -0.019320      0.040714
O	      4.29950      8.42101      6.30793        -0.011931     -0.008955      0.029428
O	      4.08624      6.42517      8.15001        -0.085751     -0.017489     -0.031243
O	      6.31330      8.67616      8.23760        -0.024304      0.062577      0.010948
O	      6.35446      6.36653     10.44707         0.026253     -0.044070     -0.226546
O	      8.47494      8.52844     10.31194        -0.008676      0.013800      0.183487
