# total energy = -226.55031572 eV
 
CRYSTAL
PRIMVEC
0.021868 6.350065 6.412543 
6.299163 0.057052 6.376684 
4.188793 4.199114 0.049701 
PRIMCOORD
36 1
Li	      4.24644     10.44128      6.59275         0.010737      0.013213      0.022973
Li	      2.06303      0.07208      2.08007         0.021447      0.020726      0.018854
Li	      4.07600      2.25922      2.14371         0.010702      0.001181      0.008836
Li	      2.23289      4.10126      2.19630        -0.036891     -0.008020     -0.043312
Li	      2.16098      2.18737      4.29337        -0.026075      0.000322     -0.007891
Li	      4.08711      4.26700      4.21946         0.056741      0.009036     -0.040832
Li	      4.16237      2.16525      6.29704         0.006082     -0.001182     -0.068420
Li	      4.29929      8.34497      4.45445         0.055783     -0.008083      0.051052
Li	      4.22640      6.41614      6.27663         0.057010      0.003600     -0.059780
Sc	      6.15727      2.16319      4.31655        -0.129923      0.085305      0.042288
Sc	      6.28145      6.34911      8.53115        -0.099419     -0.024751     -0.034822
Mn	      2.24482      8.44737      6.44580        -0.003454     -0.028060      0.137129
Fe	      4.24676      6.16351      2.19437         0.023514      0.231780     -0.007757
Fe	      6.29132      4.33219      6.34037        -0.071359     -0.037844     -0.026861
Fe	      2.22337      6.20944      4.36995        -0.026643      0.125887      0.003761
Fe	      4.20396      4.29810      8.43073        -0.005739      0.035366      0.128416
Co	      8.38781      4.23129      4.32966        -0.125951      0.050114     -0.058354
Co	      6.25845      8.46236      6.44907        -0.123464      0.009820      0.035768
O	      2.04602      2.13157      1.92675         0.044959      0.019802     -0.093391
O	      4.17045      4.30164      2.19003        -0.025261     -0.271194     -0.055029
O	      4.17925      1.97562      4.24136         0.071730     -0.063320     -0.012523
O	      6.41548      4.24251      4.36739         0.109369     -0.030669     -0.035056
O	      6.24839      2.27080      6.40292        -0.010638     -0.030754     -0.037989
O	      8.33277      4.17704      6.27313         0.047324     -0.052040     -0.066685
O	      2.09476      4.29004      4.47627         0.013187     -0.077110      0.065114
O	      4.15922      6.34727      4.18541         0.011501      0.038204      0.075478
O	      4.17380      4.28294      6.47548        -0.045443      0.040394     -0.053810
O	      6.30778      6.38411      6.46608         0.043638      0.008328      0.061961
O	      6.25015      4.26291      8.38828        -0.014738     -0.010611      0.027242
O	      8.40147      6.45926      8.70748        -0.046320     -0.035208     -0.033308
O	      2.13528      6.36525      6.32407         0.044505      0.027249      0.070615
O	      4.32930      8.42393      6.49217         0.140851     -0.009045     -0.057713
O	      4.22095      6.24415      8.74843         0.069096      0.059832      0.125404
O	      6.37618      8.45813      8.52192        -0.027098     -0.042870     -0.049766
O	      6.25093      6.42661     10.64214         0.014879     -0.024778     -0.011855
O	      8.41000      8.53560     10.79221        -0.034639     -0.024619     -0.019737
