# total energy = -221.94025805 eV
 
CRYSTAL
PRIMVEC
0.004122 6.374498 6.191202 
6.318813 0.003257 6.192105 
4.216975 4.254836 -0.002360 
PRIMCOORD
36 1
Li	      6.33890      0.06748      6.15222         0.022669      0.075099     -0.036262
Li	      2.10093      8.44271      6.14768        -0.046500     -0.028908     -0.021483
Li	      2.07693      0.11581      2.06240        -0.037862      0.106039     -0.031615
Li	      2.12513      2.07958      4.09260         0.003740     -0.011905      0.016181
Li	      4.25644      2.09879      6.19303         0.028265     -0.014202      0.028920
Li	      6.29821      4.25351      6.17742        -0.007120     -0.023722     -0.013136
Li	     10.40756      8.52144     10.30728        -0.106951      0.002660      0.023158
Li	      8.42342      6.48115     10.32488        -0.014682      0.085141      0.039614
Li	      8.47947      8.46144      8.32329         0.032655     -0.083827      0.031754
Sc	      8.42762      4.25286      8.18403        -0.052191      0.084058     -0.088551
Sc	      2.09605      4.28998      6.15722         0.094529      0.153601     -0.208233
Mn	      6.32917      6.35526      8.27416         0.189310     -0.187204      0.186184
Fe	      8.37914      4.15361      4.24138        -0.071316      0.131033      0.007878
Fe	      6.36328      2.15562      8.17686        -0.224859      0.151324      0.153460
Fe	      4.30561      4.22741      4.14114         0.116413      0.096169      0.010514
Fe	      4.16358      6.40315      6.14288        -0.019088     -0.141157     -0.188826
Cu	      4.16388      2.11938      2.05648        -0.019742      0.014758     -0.062334
Ni	      6.34820      2.11657      4.17874         0.058990     -0.037243      0.215466
O	      8.37047      8.61871     10.33981         0.119061     -0.298909     -0.066770
O	      2.00561      2.16902      2.05512         0.414541     -0.080917     -0.012326
O	      4.21829      4.36422      2.10650         0.066344     -0.258386     -0.151355
O	      4.25908      2.14867      4.01457        -0.081559     -0.071320     -0.015239
O	      6.34249      4.19940      4.10153        -0.034317      0.131665     -0.114103
O	      6.28679      2.13645      6.32064        -0.014833      0.025270     -0.122446
O	      8.45838      4.30458      6.13779         0.003789      0.043836      0.241857
O	      2.26112      4.19823      4.11991        -0.095987     -0.050799      0.023904
O	      4.24286      6.31370      4.08650         0.017897      0.057092     -0.082060
O	      4.21362      4.34417      6.10330        -0.025602     -0.032878      0.216270
O	      6.24341      6.39951      6.33859         0.059889     -0.002541      0.046149
O	      6.34384      4.31267      8.28611        -0.036591      0.107483      0.019114
O	      8.32243      6.35980      8.27109        -0.121649      0.038486      0.009689
O	      2.21631      6.33002      6.23098        -0.100095     -0.075682      0.062166
O	      4.22463      8.41786      6.27232        -0.006644      0.061834     -0.011654
O	      4.37525      6.35981      8.25024        -0.022160      0.196473      0.074778
O	      6.32879      8.29154      8.27914        -0.183413     -0.065145     -0.020069
O	      6.22540      6.39781     10.21458         0.095068     -0.097274     -0.160596
