# total energy = -221.51318538 eV
 
CRYSTAL
PRIMVEC
0.024098 6.301360 6.544258 
6.193805 0.035436 6.531694 
4.145293 4.208956 0.007755 
PRIMCOORD
36 1
Li	      6.10251      4.30037      2.23740         0.060157     -0.017081      0.012381
Li	      4.11810      2.09179      2.36746         0.011155     -0.084756      0.001383
Li	      4.16029      6.34820     10.75490         0.021277     -0.001033     -0.120963
Li	      4.21703      6.27096      2.39054        -0.076668      0.029749     -0.022196
Li	      4.17627      4.30010      4.32148        -0.008996      0.012379      0.033075
Li	      6.09560      4.29884      6.37345        -0.065054      0.078153     -0.017063
Li	      8.28844      6.34208     10.81990        -0.028703      0.018604     -0.065228
Li	      4.23803      6.21636      6.54103         0.022935     -0.036306      0.131656
Li	      4.16412      4.27992      8.73149         0.013011      0.033673     -0.019331
Sc	      2.10068      8.34376      6.56885         0.050374     -0.074775      0.012591
Sc	      4.14984      2.14822      6.50841        -0.041128      0.072230      0.185944
Mn	      4.14466      8.35112      4.33576        -0.046678      0.079236     -0.124631
Fe	      6.18430      2.33042      4.23837         0.089631     -0.164424     -0.155103
Fe	      2.16914      4.15456      2.22219        -0.303434      0.187311      0.107086
Fe	      2.10776      4.27597      6.63290        -0.066329     -0.080348      0.145223
Fe	      6.14353      6.31249      8.76588         0.262297     -0.041118     -0.020337
Cu	      4.14101      4.19634      0.12033         0.065944      0.042029     -0.079615
Cu	      6.22770      6.24796      4.30256         0.083060     -0.111191      0.076556
O	      4.05704      4.28963      2.20292         0.235863     -0.045769      0.076941
O	      6.22244      4.24122      4.30098        -0.011351      0.064134      0.073795
O	      2.10132      2.17789      2.05061        -0.023088     -0.118284     -0.013832
O	      4.16300      2.11008      4.40894        -0.020089      0.018024     -0.023597
O	      6.22319      2.20646      6.27279         0.038078      0.071686     -0.034827
O	      8.35227      4.22812      6.64749        -0.100461     -0.075928     -0.046729
O	      1.96740      4.09491      4.38887        -0.022782      0.090743      0.002536
O	      4.22492      6.44148      4.36405        -0.076389      0.070733      0.045897
O	      4.02984      4.20711      6.53658         0.104345     -0.034233     -0.070063
O	      6.21757      6.38750      6.74761         0.023620     -0.027217     -0.266305
O	      6.25642      4.24321      8.92515         0.050014     -0.311486      0.148629
O	      8.11204      6.22962      8.68668         0.466870     -0.032415     -0.116734
O	      1.97463      6.23831      6.62177         0.014134      0.092937     -0.068720
O	      4.20319      8.37719      6.29923        -0.044057     -0.016505     -0.083601
O	      4.36134      6.31329      8.72430        -0.779742      0.030432     -0.028324
O	      6.22349      8.36425      8.77993         0.011381      0.319832      0.034829
O	      6.22525      6.20038     10.77592         0.014177     -0.045791      0.201178
O	      8.35410      8.39569     10.93625         0.076628      0.006775      0.087498
