# total energy = -221.53467683 eV
 
CRYSTAL
PRIMVEC
-0.012888 6.291468 6.370316 
6.229265 -0.013458 6.371023 
4.156883 4.198719 -0.012894 
PRIMCOORD
36 1
Li	      2.06185      2.11627      0.10792        -0.011313      0.053860      0.045040
Li	      2.05022      6.28363      8.47258         0.011478      0.022838      0.037034
Li	      4.16670      8.35857      8.47669        -0.044000      0.018452      0.028485
Li	      6.19603      8.42680     10.47521        -0.024289      0.022926     -0.045953
Li	      8.28132      4.12640      8.40316         0.032111     -0.019833     -0.020653
Li	      2.09057      2.07100      4.21608         0.013032     -0.032225      0.000303
Li	      8.28279      6.23434      6.41102        -0.020467     -0.033863     -0.013339
Li	      6.22876      4.22665      6.38024         0.006638     -0.012208     -0.052643
Li	      6.23368      8.36471      6.47054         0.020865     -0.017500     -0.023837
Sc	      8.19424      4.23881      4.25230        -0.078822      0.012260      0.148010
Sc	      4.18147      4.06328      4.27111        -0.032469     -0.066097      0.053567
Mn	      0.06374      2.10562      2.07348         0.016613     -0.061392     -0.114959
Fe	      4.14569      4.19829      0.08435         0.133728     -0.105387     -0.033041
Fe	      0.07492      4.17501      4.26632        -0.018834      0.008846      0.047510
Fe	      8.26753      6.32828     10.61386         0.047300     -0.040008      0.074065
Fe	      4.19123      6.29500      6.47482        -0.198451      0.163375     -0.119345
Ni	      4.11008      4.18046      8.44360         0.061690     -0.006916     -0.053918
Ni	      6.26499      6.32775      8.40979         0.000356     -0.147668      0.011538
O	      1.88265      2.13432      2.14044        -0.010266     -0.079737      0.025339
O	      4.16763      4.33018      2.09113         0.020867      0.046211      0.080952
O	      4.12453      2.08358      4.20879         0.068342     -0.024931     -0.060942
O	      6.21577      4.14533      4.27367        -0.054688      0.010045     -0.061643
O	      6.22589      1.98527      6.57616         0.002144      0.198499      0.069652
O	      8.45701      4.18249      6.29557        -0.220105     -0.028878      0.010346
O	      2.03434      4.30972      4.19235         0.088878     -0.037049     -0.015009
O	      4.10749      6.32662      4.15900         0.045889     -0.035086     -0.013337
O	      4.12143      4.34065      6.33717        -0.006432     -0.225220     -0.000782
O	      6.08592      6.29003      6.40242         0.303242      0.000103     -0.118140
O	      6.16077      4.07636      8.54285        -0.006630     -0.030518     -0.034272
O	      8.36188      6.33632      8.55173         0.146988     -0.032897     -0.047120
O	      2.07355      6.32347      6.25981        -0.030326      0.027173      0.038701
O	      4.14990      8.37417      6.28824         0.018243      0.072324      0.035707
O	      4.18199      6.25586      8.45683        -0.121178      0.055038      0.134135
O	      6.32044      8.31236      8.49105        -0.048489      0.178345     -0.009080
O	      6.26167      6.21019     10.63465        -0.079090      0.117644      0.014197
O	      8.39233      8.35742     10.54252        -0.032556      0.029474     -0.016566
