# total energy = -229.21434501 eV
 
CRYSTAL
PRIMVEC
0.036607 6.311911 6.441881 
6.245253 0.045741 6.432491 
4.180814 4.218802 0.013660 
PRIMCOORD
36 1
Li	      8.40985      8.41693     12.72634        -0.010336     -0.002187     -0.107702
Li	      2.03913      0.06324      2.10855         0.006764     -0.046917     -0.015519
Li	      6.26370      2.17611      4.28057        -0.020760      0.005312     -0.025957
Li	      2.10520      4.21055      2.27494         0.023854      0.016009      0.023334
Li	      4.11433      4.21255      4.36561         0.032970     -0.013928      0.047002
Li	      4.17242      2.15956      6.38421        -0.000382      0.017516      0.000579
Li	      4.25839      8.37105      4.34259        -0.042368      0.010392      0.035384
Li	      2.16515      6.30375      4.36629         0.034099      0.038048      0.004727
Li	      2.14375      4.24131      6.30397         0.067287     -0.016547      0.004524
Sc	      0.15222      6.29748      6.38558        -0.072383      0.030781     -0.087276
Sc	      8.29928      8.47911      8.60062        -0.189483     -0.108309     -0.039310
Mn	      2.07368      2.19264      4.30648         0.062390     -0.155450      0.066976
Fe	      4.16309      2.15527      2.12137         0.008208      0.128189      0.208434
Fe	      8.32285      4.20550      4.37108         0.041595      0.085947     -0.042040
Fe	      4.20638      6.23201      2.20871        -0.093401     -0.012307     -0.217426
Fe	      6.27297      4.20377      6.40834        -0.021405      0.004853     -0.048004
Fe	      6.34911      6.31749      8.67101         0.131984      0.113938      0.055880
Co	      4.14496      6.35706      6.39677        -0.581681      0.162992     -0.177156
O	      2.08468      2.10784      2.36880         0.017037      0.003138      0.028187
O	      4.19337      4.22030      2.08253         0.000105     -0.026084      0.002587
O	      4.03833      2.08718      4.20843        -0.106219      0.032728     -0.026623
O	      6.30256      4.34960      4.38897        -0.036067      0.072047     -0.001747
O	      6.26551      2.17509      6.58983         0.069712      0.005343      0.038700
O	      8.33160      4.28472      6.33724        -0.048337     -0.028311      0.051227
O	      2.09461      4.02484      4.32403        -0.035536     -0.010926     -0.013111
O	      4.31630      6.33176      4.17177         0.012442      0.034359      0.132687
O	      4.25839      4.31687      6.46854         0.122183     -0.580949      0.171937
O	      6.17222      6.29473      6.37663         0.840784     -0.002608     -0.113822
O	      6.26035      4.28772      8.48391         0.036793     -0.051225      0.009652
O	      8.35075      6.39049      8.63592         0.040301     -0.024809      0.004905
O	      2.15593      6.32227      6.39830        -0.464016     -0.032254      0.040381
O	      4.15058      8.41547      6.59546         0.152537      0.459381     -0.041603
O	      4.27438      6.38966      8.66463        -0.044924      0.011417      0.000914
O	      6.22856      8.33892      8.60749         0.008422     -0.016719      0.012917
O	      6.23500      6.35599     10.69068         0.021972     -0.035941      0.014858
O	      8.34106      8.57455     10.65469         0.035858     -0.066918      0.001503
