# total energy = -225.79201661 eV
 
CRYSTAL
PRIMVEC
0.010117 6.297732 6.279565 
6.540555 0.003426 6.285815 
4.364038 4.205741 -0.000959 
PRIMCOORD
36 1
Li	      6.53988     10.32214      8.49774        -0.005729      0.006525      0.072458
Li	      4.49235      8.42801      8.43352        -0.015212      0.037390      0.071668
Li	      4.27077      0.10020      4.03135        -0.080611      0.111673     -0.002543
Li	      6.53580      8.41450     10.39382        -0.035175      0.070596     -0.038660
Li	      4.37792      6.20704      2.17152         0.072213      0.023521     -0.011134
Li	      4.37685      4.15081      4.19329         0.074191     -0.059444      0.032151
Li	      4.27224      2.15690      6.21067        -0.081711      0.060034     -0.066669
Li	      2.29297      4.21010      6.36894         0.032970     -0.007148      0.020664
Li	      8.57370      8.43189      8.44918         0.015536     -0.009294     -0.053185
Sc	      2.20887      8.33954      6.30592        -0.058122      0.085729      0.216163
Sc	      6.46323      4.13102      6.28947        -0.109809      0.037607     -0.257106
Mn	      6.48485      0.03096      6.24622        -0.041576      0.013771      0.059039
Fe	      2.25578      4.27009      2.09287        -0.057295     -0.193509     -0.049770
Fe	      2.26979      2.07723      4.10196        -0.029244     -0.010525      0.183082
Fe	      6.52024      4.19794     10.40754         0.207335     -0.064837      0.018169
Fe	      4.38707      6.19290      6.37500         0.125774     -0.004284     -0.041163
Fe	      6.51686      6.48191      8.42759        -0.090048     -0.155060     -0.137265
Cu	      2.23489      6.27301      4.16859         0.131798     -0.040427      0.051219
O	      6.54538      8.34834      8.45242         0.072973      0.128188     -0.008609
O	      2.14474      2.18157      2.11700        -0.018652      0.076591     -0.240275
O	      4.24958      4.23802      1.89691         0.025970      0.048141     -0.165423
O	      4.07149      2.13805      4.18464         0.399522      0.022556      0.018920
O	      6.53736      4.34515      4.20815        -0.013787     -0.262293      0.109332
O	      6.60429      2.02645      6.17946         0.107078     -0.084848      0.078993
O	      8.62439      4.16232      6.35174         0.032712     -0.082424     -0.002846
O	      2.14245      4.17972      4.12223        -0.125198      0.161386      0.007258
O	      4.67086      6.39166      4.26882        -0.502150     -0.046863     -0.037483
O	      4.43018      4.24716      6.28913         0.025997     -0.046579      0.051763
O	      6.47335      6.29103      6.34867        -0.008737     -0.033219     -0.077309
O	      6.65410      4.27527      8.41600         0.014404      0.064550     -0.010939
O	      8.63891      6.24927      8.49540        -0.078727      0.104701     -0.003457
O	      2.36725      6.27509      6.17235        -0.069090      0.025598      0.043387
O	      4.33631      8.51386      6.18956        -0.059447     -0.005646     -0.013084
O	      4.48150      6.32905      8.29231         0.077327     -0.027720      0.100471
O	      6.43423      6.23371     10.52048         0.124754      0.034819      0.115382
O	      8.90784      8.26798     10.48431        -0.060233      0.020746     -0.033195
