# total energy = -230.31223908 eV
 
CRYSTAL
PRIMVEC
-0.001060 6.463701 6.292371 
6.267810 -0.000346 6.292171 
4.181360 4.311813 -0.003091 
PRIMCOORD
36 1
Li	      6.26145      0.02812      6.29227        -0.010355      0.068600     -0.022383
Li	      4.27173      8.59376      8.35857        -0.001871     -0.069215     -0.021600
Li	      6.24207      2.19286      4.13500         0.039395      0.009851     -0.019752
Li	      6.32007      6.47584      4.26338         0.054223     -0.043267      0.027544
Li	      8.27952      6.53743      6.29562        -0.005626     -0.027579      0.023605
Li	      6.20917      4.39056      6.33684         0.002572      0.050917      0.048004
Li	      6.30296      8.48851      6.37401         0.008873     -0.075952      0.012782
Li	      8.26975      8.61067      8.31598         0.039807      0.017650     -0.008571
Li	      6.32288      6.60424      8.29229         0.042186      0.104847     -0.011817
Sc	      8.32736      2.17388      6.29912        -0.072491      0.069664     -0.111112
Sc	      4.16443      0.15330      4.17308         0.064086      0.039907      0.082790
Mn	      8.31071      6.46190     10.50909        -0.151241      0.029596     -0.007464
Fe	      6.24943     10.55035      8.34797        -0.026751      0.141556     -0.035372
Fe	      6.24497      2.17339      8.31428        -0.074756      0.031133      0.109337
Fe	      8.34773      4.31213      8.34742         0.016488     -0.003441     -0.094246
Fe	      4.22056      4.12584      4.28727         0.019785      0.033068     -0.036624
Fe	      0.03784      4.32542      4.21529        -0.012228      0.020898     -0.110689
Fe	      4.35812      6.42269      6.34962        -0.090031     -0.067633      0.058809
O	      2.02081      2.21753      2.08201         0.047888     -0.050301      0.038653
O	      4.18498      4.38482      2.18267        -0.058470      0.019664      0.035346
O	      4.20007      2.18646      4.21742        -0.005314     -0.079218     -0.023134
O	      6.24575      4.32685      4.08690         0.007260      0.021667     -0.020403
O	      6.27433      2.12828      6.40603         0.002810      0.013526     -0.148907
O	      8.38282      4.26928      6.32771        -0.014118      0.021441     -0.018485
O	      2.10142      4.25493      4.10044         0.023177      0.058064      0.013184
O	      4.02389      6.49243      4.20752         0.004840     -0.024702     -0.058894
O	      4.18829      4.40867      6.18327        -0.065893     -0.025509      0.136566
O	      6.21135      6.45028      6.31900         0.185385      0.009930     -0.046658
O	      6.34619      4.19953      8.48288        -0.059751     -0.031990      0.008182
O	      8.40485      6.37441      8.52446        -0.062937     -0.009483      0.098205
O	      2.09232      6.50544      6.24053         0.064186     -0.016383     -0.056926
O	      4.16752      8.50479      6.18559         0.028089      0.003654      0.089380
O	      4.06383      6.50189      8.36133         0.066303      0.024453      0.023402
O	      6.25581      8.70502      8.36562         0.026272     -0.204433      0.022105
O	      6.34433      6.37225     10.48192         0.016976      0.017152      0.006782
O	      8.44402      8.74077     10.49416        -0.048769     -0.078132      0.018363
