# total energy = -213.21512998 eV
 
CRYSTAL
PRIMVEC
0.056171 6.285918 6.252882 
6.260590 0.060398 6.249287 
4.214777 4.229138 -0.000804 
PRIMCOORD
36 1
Li	      8.26274      2.31694      6.22882        -0.023378      0.028593     -0.004365
Li	      6.27095      4.31526      2.24193        -0.020243      0.039296     -0.027284
Li	      8.26838      4.22545      4.15451        -0.024612      0.079465      0.071030
Li	      4.25035      6.37184      2.22448         0.021581      0.020378     -0.028876
Li	      2.03893      2.12144      4.07461         0.028051     -0.039187      0.010060
Li	      4.29398      4.24669      4.05767         0.014003     -0.034956      0.005450
Li	      6.42332      4.12146      6.21299        -0.032012     -0.010174      0.016433
Li	      0.07559      4.07528      4.03165        -0.010873     -0.026273      0.037419
Li	      8.45501      6.37598     10.33844         0.034377     -0.003967      0.099030
Sc	      6.23346      0.14834      6.20024        -0.051394      0.081515      0.065889
Sc	      4.22193      6.26196      6.09971         0.020936     -0.072680     -0.151746
Mn	      4.18492      2.12788      2.14836        -0.122887      0.036409      0.019726
Mn	      2.14214      4.19096      6.15078        -0.011124     -0.040612     -0.166780
Co	      8.39211      6.35758      6.30591         0.056465      0.011527     -0.197872
Cu	      6.32215      2.22376      4.17507        -0.031077     -0.107320      0.105118
Cu	      6.32169      6.33208      8.39254         0.039962     -0.069663     -0.066717
Ni	      2.09511      4.18955      2.16829        -0.043537     -0.012372      0.016853
Ni	      8.45396      8.45646      8.43333         0.020057      0.029782     -0.078252
O	      6.29970      4.06715      4.19295        -0.009329      0.128111      0.015001
O	      8.26902      8.48928     10.41187        -0.001050     -0.002319      0.175103
O	      2.30792      2.13014      2.09711         0.152087     -0.126652     -0.024153
O	      4.17815      4.03669      2.06020         0.111601     -0.084681     -0.004120
O	      4.37347      2.15398      4.09762         0.039705      0.000293      0.002666
O	      6.10454      2.13945      6.45698        -0.008639      0.019242      0.142258
O	      8.38908      4.42656      6.30910         0.068838      0.095385     -0.059604
O	      2.10805      4.19447      4.28928        -0.019139      0.011608      0.061958
O	      4.25127      6.31852      4.16971        -0.030211     -0.023433      0.074365
O	      4.07082      4.12923      6.32912        -0.067263     -0.022394     -0.078924
O	      6.41825      6.44998      6.25055        -0.004204      0.044114     -0.109294
O	      6.27811      4.38592      8.35770        -0.017427     -0.103831      0.009390
O	      8.30543      6.36257      8.20800         0.046156      0.036921     -0.057380
O	      2.15391      6.12087      6.25882         0.016959     -0.076561     -0.022980
O	      4.35175      8.40037      6.34217         0.044999     -0.007737      0.054879
O	      4.31702      6.42787      8.30638        -0.162083      0.070626      0.043414
O	      6.26650      8.36791      8.12533        -0.073547      0.069781     -0.052990
O	      6.35684      6.55515     10.36336         0.048254      0.061766      0.105293
