# total energy = -92.21665540 eV
 
CRYSTAL
PRIMVEC
4.038546 -0.000080 -0.000039 
-2.019449 4.297197 -6.271166 
-2.019238 4.252717 2.060714 
PRIMCOORD
16 1
Li	      2.01678      2.19604     -0.19546        -0.001522      0.017909     -0.033359
Li	     -0.00251      4.36246     -0.09827        -0.001531      0.019312     -0.010829
Li	     -0.00289      2.04001     -2.01741         0.003341     -0.016190      0.011122
Li	      2.01599      4.20648     -1.92003         0.000514     -0.015873      0.034621
Mn	     -2.02190      4.26033      1.96113         0.000170      0.042335     -0.108879
Mn	     -0.00301      6.39509     -2.01590         0.000337     -0.039816      0.106283
Ni	     -0.00297      4.31549     -4.12515        -0.002502      0.001157     -0.017156
Ni	     -2.02216      6.38439     -4.26161         0.005742      0.003931      0.014004
O	     -2.02223      6.50329     -2.16274        -0.003949     -0.098404      0.066667
O	      2.01656      4.18055      0.14032        -0.002267      0.003653      0.045497
O	     -0.00263      6.47272     -4.05240        -0.002998      0.069127     -0.011733
O	     -2.02209      8.44942     -4.16322        -0.000978      0.097506     -0.064961
O	      2.01605      4.22720     -4.33431         0.004851     -0.073053      0.010058
O	      2.01641      2.22203     -2.25588         0.000662     -0.007998     -0.045193
O	     -0.00309      4.54200     -2.12546         0.000701      0.043841      0.095231
O	     -0.00252      1.86075      0.00977        -0.000571     -0.047437     -0.091373
