# total energy = -215.47225415 eV
 
CRYSTAL
PRIMVEC
-0.073110 6.174982 6.440525 
6.150796 -0.006274 6.372545 
4.118477 4.090565 -0.021818 
PRIMCOORD
36 1
Li	     10.22289      4.10796      6.40911        -0.051844     -0.004612     -0.054766
Li	      4.05442      6.18421     10.70026         0.047855     -0.104506      0.079528
Li	     10.06596      6.21096      8.52829         0.141779     -0.046747     -0.079984
Li	      8.16761      6.23462      6.58541         0.211660     -0.185458     -0.068730
Li	      6.08886      4.08497      6.61199         0.256209     -0.249560     -0.013670
Li	      8.19931      6.14390     10.41450        -0.062530      0.177281      0.025186
Li	      4.08596      6.09397      6.48159        -0.122211      0.263599      0.061772
Li	      4.14786      4.00130      8.25261        -0.053068      0.036716      0.159139
Li	      6.23308      6.11433      8.38005        -0.087053      0.139086      0.094909
Sc	      6.16354      6.12011      4.41067         0.087861     -0.142232     -0.537531
Sc	      6.06023      4.18706     10.54816        -0.498188      0.257882      0.509712
Mn	      1.99520      6.14638      8.54745         0.087527      0.166100     -0.161644
Mn	      6.10168      8.15118     10.71358         0.548807     -0.209676      0.758374
Co	      2.05907      2.05786      0.00227        -0.323334      0.052075     -0.309457
Co	      4.04758      8.19199      8.54317        -0.117825     -0.086931     -0.259196
Cu	      2.09230      4.12417      6.42327        -0.422122      0.315268      0.081593
Ni	      8.13384      4.19912      8.43402         0.160763     -0.367879     -0.318205
Ni	      4.06514      4.16512      4.28683         0.084856     -0.082981     -0.221865
O	      4.01943      4.11645      6.29352        -0.222522      0.026765      0.091717
O	      8.19956      6.13272      8.46201        -0.043761      0.162338      0.059451
O	      2.15930      1.95867      2.01816         0.046453     -0.089062      0.219275
O	      4.20376      3.97318      2.16550        -0.036796      0.005336      0.056359
O	      4.21379      2.04864      4.08600        -0.175849      0.001744      0.068871
O	      6.15953      4.00608      4.09843        -0.019914      0.166517     -0.066644
O	      6.30486      2.02826      6.20030        -0.539869      0.057849     -0.296745
O	      8.18658      3.89037      6.45761        -0.146756      0.361329      0.050101
O	      2.00702      4.09351      4.14819         0.036601      0.050748     -0.011684
O	      4.13928      6.21466      4.24568         0.106092     -0.048874     -0.026226
O	      6.14571      6.23866      6.36100         0.097750      0.412375      0.235350
O	      6.07851      4.12907      8.57912         0.004718      0.001438     -0.210660
O	      1.95400      6.17709      6.64458        -0.014752     -0.820642      0.143884
O	      3.91032      8.20561      6.55575         1.132946     -0.153546      0.220537
O	      3.88986      6.26315      8.57397        -0.088165     -0.010197      0.009425
O	      6.01061      8.28741      8.70134        -0.047590      0.064978     -0.104617
O	      6.08004      6.28487     10.69348         0.057256     -0.043898     -0.122169
O	      8.05348      8.21648     10.88121        -0.034980     -0.072624     -0.061388
