# total energy = -214.53471666 eV
 
CRYSTAL
PRIMVEC
0.000118 6.484256 6.167064 
6.377683 0.021306 6.144942 
4.238096 4.294600 0.028560 
PRIMCOORD
36 1
Li	      2.01393      0.08531      1.98991         0.033508     -0.087784      0.128239
Li	      4.32210      6.38442      2.26463        -0.096860      0.040505     -0.087345
Li	      2.12320      4.31074      2.16845        -0.043603      0.170703     -0.094490
Li	      1.97467      2.39400      4.03186         0.067111     -0.018299      0.140202
Li	      4.08949      4.42123      4.09753         0.014776     -0.054338      0.087549
Li	      0.25169      4.17800      4.13030        -0.091827      0.015574     -0.108536
Li	      2.19425      6.24313      4.18642         0.012725      0.054643     -0.206540
Li	      2.08658      4.35296      5.95852         0.147641     -0.080694      0.098433
Li	      6.44667      6.39373      8.15524         0.116820     -0.015031     -0.001741
Sc	      4.22017      6.55326     10.18003         0.038309      0.260188      0.305846
Sc	      8.49275      8.54164      8.19938        -0.081667     -0.604788     -0.221013
Mn	      4.28371      4.31340      0.10656        -0.557693      0.403695     -0.216350
Mn	      6.35131      2.17292      4.14272        -0.313708      0.074104      0.012664
Co	      8.45759      6.45943      6.19923        -0.007661      0.129531     -0.068587
Co	      6.35732      4.35044      6.22550        -0.242494     -0.021952     -0.109457
Cu	      2.22118      8.50713      6.26555        -0.035523      0.102171     -0.086628
Cu	      4.28526      6.47683      6.12729         0.173324     -0.091277      0.095712
Ni	      4.22563      2.25400      2.04032         0.259547     -0.123835      0.356450
O	      2.23233      2.10638      1.99709        -0.204518      0.019523     -0.036921
O	      2.12713      4.32597      4.08787        -0.042596     -0.075487      0.077969
O	      4.21850      6.49842      4.27182         0.035704      0.052679      0.088314
O	      4.25322      4.30001      1.95494         0.071824      0.054360     -0.032885
O	      4.39605      2.15759      4.19953         0.216625     -0.111566     -0.478365
O	      6.39341      4.11334      4.29637         0.107594      0.023899      0.055689
O	      6.26671      2.11842      6.11225        -0.027652     -0.062147     -0.137781
O	      8.57219      4.49673      6.16610         0.053494     -0.189504      0.027671
O	      4.27313      4.11259      6.13756         0.181697      0.021945      0.026550
O	      6.50230      6.29241      6.11612        -0.114960     -0.183096     -0.221210
O	      6.32730      4.32142      8.07254         0.034701      0.014248     -0.048523
O	      8.45959      6.50643      8.02839         0.026270      0.099506      0.708303
O	      1.93498      6.52537      6.16283         0.286583      0.029779      0.045846
O	      4.22888      8.89585      6.16735        -0.084733     -0.059452     -0.170108
O	      4.27579      6.44924      8.12739        -0.021939      0.200677     -0.247733
O	      6.34038      8.66019      8.42851         0.022497      0.053463      0.066544
O	      6.32139      6.71058     10.37226         0.070782     -0.026703      0.156050
O	      8.31316      8.72396     10.34569        -0.004101     -0.015242      0.096180
