# total energy = -214.77252839 eV
 
CRYSTAL
PRIMVEC
0.021797 6.312852 6.356308 
6.187825 0.032528 6.345332 
4.141826 4.218243 0.005026 
PRIMCOORD
36 1
Li	      4.20529     10.44413      6.33486         0.055972     -0.085593     -0.009021
Li	      8.32059      8.48673     12.62253         0.112211     -0.048327     -0.015102
Li	      4.14800      8.33976      8.39373        -0.058895      0.061219     -0.104868
Li	      6.30918      8.37407     10.55247         0.005937     -0.043002     -0.052439
Li	      4.09184      4.37964      4.18554         0.073870     -0.108348     -0.001164
Li	     10.28489      8.45493     10.63968        -0.020651      0.118982      0.028577
Li	      2.17758      6.41998      4.25269        -0.070338      0.081239      0.068510
Li	      4.07797      6.44079      6.34086        -0.069734      0.026625      0.039952
Li	      8.22046      8.56670      8.64295        -0.090082      0.062717     -0.025444
Sc	      4.18283      2.10373      6.35136        -0.299260      0.015767     -0.052228
Sc	      6.14457      4.24738      6.34237        -0.030728      0.305811     -0.042042
Mn	      2.13589      4.17287      2.21868         0.272059      0.017188     -0.030922
Mn	      6.14909      8.47608      6.33827        -0.064537      0.266655      0.101741
Co	      2.09740      6.31357      8.39822         0.117944     -0.421233     -0.022947
Co	      4.18549      6.32147      2.17057         0.111106     -0.194220      0.798936
Cu	      8.29757     10.48567     10.55896        -0.041943     -0.025358     -0.028919
Cu	      6.18683      6.31283      4.20273         0.242962     -0.008039      0.109565
Cu	      6.05006      6.42846      8.55206         0.180179     -0.257482      0.019596
O	      3.99391      6.32950      8.32270        -0.449618     -0.155570      0.086175
O	      6.02023      6.36863     10.45281         0.183662      0.007303      0.230754
O	      8.27187      8.61772     10.60795        -0.025712     -0.128695      0.009236
O	      1.99353      2.20982      2.03472         0.973144     -0.302843     -0.206691
O	      4.13746      4.36247      2.16330         0.090667     -0.875605     -0.101727
O	      4.04613      1.87017      4.29725        -0.032741      0.047240     -0.048323
O	      6.32083      4.24659      4.20181        -0.168258      0.025133     -0.296037
O	      6.19075      2.20686      6.47938        -0.054376      0.099665     -0.289198
O	      8.26134      4.26006      6.62910         0.013662     -0.011345     -0.207207
O	      2.13346      4.10011      4.26475        -0.015466     -0.037097      0.051967
O	      4.25479      6.32816      4.05438        -0.113973      0.141629      0.363807
O	      4.10130      4.16029      6.28991         0.052823     -0.025634      0.011216
O	      6.20580      6.40849      6.56410         0.037594     -0.071774     -0.183932
O	      6.35527      4.15203      8.47098        -0.197428      0.757836     -0.088872
O	      8.40381      6.17298      8.55491        -0.837562     -0.036440     -0.136707
O	      2.06593      6.13951      6.38639         0.045795      0.082129      0.156744
O	      4.33612      8.44567      6.31093        -0.040013     -0.053232     -0.088687
O	      6.20012      8.44898      8.27223         0.111730      0.772698     -0.044300
