# total energy = -215.22240413 eV
 
CRYSTAL
PRIMVEC
0.092085 6.211393 6.239568 
6.282752 0.016755 6.314950 
4.191663 4.194656 0.007985 
PRIMCOORD
36 1
Li	      6.32560      6.22975     12.49457        -0.035748      0.114208      0.026565
Li	      4.36828      6.18109     10.42203        -0.038291      0.024214     -0.042538
Li	      6.35792      8.25561     10.42171        -0.077773      0.047325      0.047321
Li	      8.34649      4.28736      8.24264         0.030687     -0.008515     -0.038568
Li	      8.37732      6.28269      6.41878         0.047493      0.053869      0.043022
Li	      6.39213      4.17642      6.40039        -0.022331     -0.039710     -0.041081
Li	      4.25365      6.21058      6.47130        -0.019382     -0.124628      0.019665
Li	      4.24182      4.20733      8.26583         0.028863      0.016179     -0.066902
Li	      6.32149      6.24833      8.34735        -0.085536     -0.022891      0.003128
Sc	      6.38060      6.21834      4.30364         0.112454     -0.253302      0.009994
Sc	      4.23700      4.14968      4.26337         0.225509     -0.061116      0.080572
Mn	      8.40732      2.18902      6.30592        -0.221771     -0.181203      0.202683
Mn	      6.28661      2.13078      8.35114        -0.009135     -0.127023     -0.421605
Co	      6.32678      4.17618     10.47466        -0.128448      0.922516      0.267639
Co	      6.34038      8.37564      6.30260        -0.023748     -0.092261      0.121700
Ni	      2.21342      6.18539      8.31363        -0.046253      0.065359      0.130161
Ni	      4.33015      8.25649      8.30800        -0.159684      0.031367      0.004617
Ni	      8.36202      6.27424     10.45076         0.102315      0.072989     -0.026922
O	      2.07427      2.07620      2.00062        -0.095405      0.144453     -0.010162
O	      4.32331      4.30205      2.10008        -0.315743      0.041072      0.060538
O	      4.20344      2.13168      4.11504        -0.035008     -0.010691      0.154757
O	      6.24671      4.20820      4.19817         0.055820     -0.046724      0.081736
O	      6.46768      2.13077      6.44478        -0.170525     -0.057758      0.028530
O	      8.38752      4.01324      6.32389         0.120665      0.149345     -0.105913
O	      2.04012      4.16719      4.28203        -0.087578     -0.092626      0.064980
O	      4.23143      6.32159      4.02267         0.127007     -0.295827      0.043280
O	      4.05972      4.18467      6.26025         0.835406      0.031118     -0.120879
O	      6.31827      6.41057      6.28645        -0.166477     -0.325696      0.063989
O	      6.32451      4.03297      8.53400         0.022545     -0.219535     -0.630941
O	      8.62913      6.24190      8.40308        -0.070494      0.038742     -0.074278
O	      2.17427      6.18760      6.24494        -0.138106      0.448359     -0.200781
O	      4.20365      8.32005      6.16325        -0.263012     -0.144018      0.355651
O	      4.10470      6.27407      8.37354         0.513361     -0.031326      0.075475
O	      6.30948      8.39146      8.18632         0.064535     -0.292793      0.045318
O	      6.39587      6.07038     10.39588        -0.201571      0.094279     -0.038451
O	      8.57887      8.29199     10.64374         0.125357      0.132250     -0.112301
