# total energy = -217.85751169 eV
 
CRYSTAL
PRIMVEC
0.036065 6.204597 6.270489 
6.365879 0.028954 6.275986 
4.274076 4.169500 -0.009351 
PRIMCOORD
36 1
Li	      2.23149      8.20393      6.32079        -0.020222      0.028015     -0.045466
Li	      2.35210      6.42903      8.32097        -0.030355      0.099940      0.047915
Li	      4.17823      1.99735      2.10916         0.048234     -0.000333      0.106189
Li	      4.27987      6.21718     10.33191         0.022866     -0.021083      0.020311
Li	      0.13924      2.13248      2.11782         0.083860     -0.017634      0.014614
Li	      2.09769      2.11203      4.06909        -0.008463     -0.061758      0.016965
Li	      8.52687      6.30608     10.45148        -0.094847      0.083208      0.018452
Li	      4.20894      6.27997      6.28959        -0.021867     -0.037996      0.033349
Li	      8.52777      8.39934      8.43409        -0.015371     -0.032945      0.038509
Sc	      4.28938      4.27356      4.04922         0.449352     -0.195373      0.206392
Sc	      6.38616      8.29514      6.29713         0.255600     -0.071578      0.052001
Mn	      4.27643      4.16402      0.03545         0.162190      0.212050     -0.290557
Mn	      6.40768      4.16584      6.25893        -0.101407     -0.039840     -0.527909
Co	      6.52777      8.28400     10.38405        -0.813788      0.104072      0.169101
Co	      2.15530      4.10640      2.11815        -0.388430      0.562259      0.080023
Co	      6.33714      6.18785      8.37613        -0.057826      0.302821     -0.118688
Cu	      4.26067      2.06950      6.25787         0.055264      0.007625      0.027848
Cu	     10.53406      8.26636     10.45434        -0.158327      0.091535      0.204855
O	      4.47517      6.21938      8.30698         0.104665      0.025508     -0.060749
O	      8.35346      8.29650     10.47481         0.396750      0.045029     -0.015657
O	      2.15195      2.26358      2.09442         0.115091     -0.599850     -0.032619
O	      4.26643      4.24448      1.97865        -0.452938     -0.112099      0.213483
O	      4.49526      2.13772      4.25094         0.122042      0.052822     -0.403303
O	      6.40880      4.17043      4.30186         0.070340     -0.035692      0.201313
O	      6.28168      2.04839      6.26031         0.243225     -0.027938     -0.164128
O	      8.62355      4.24482      6.37015         0.109242     -0.302999      0.341551
O	      2.19536      4.12193      4.16777         0.157138      0.053668     -0.500479
O	      4.22075      6.30361      4.18936         0.034117     -0.058432      0.047846
O	      4.25939      4.07842      6.22320        -0.216730      0.325421     -0.041431
O	      6.52229      6.16746      6.22266        -0.228234     -0.037218     -0.207542
O	      6.36745      4.23528      8.21545         0.414264     -0.135465      0.210619
O	      8.29809      6.05468      8.30444        -0.277231      0.197497      0.081011
O	      1.96865      6.17510      6.34939        -0.047911     -0.035984      0.041700
O	      4.30469      8.44819      6.29704        -0.116152     -0.065711     -0.339659
O	      6.43428      8.11589      8.38666         0.137499     -0.237658      0.226552
O	      6.35747      6.12988     10.59715         0.068359     -0.063884      0.347591
