# total energy = -217.94630849 eV
 
CRYSTAL
PRIMVEC
0.001211 6.276084 6.341405 
6.293458 0.000613 6.341468 
4.180026 4.168583 0.016411 
PRIMCOORD
36 1
Li	     10.39524      4.25611      6.44353         0.008378      0.017368      0.029390
Li	      4.35388      8.31131      8.63488         0.032217      0.000818      0.071063
Li	      6.11341      2.20042      4.11172         0.050716     -0.012751     -0.052395
Li	      6.40114      6.19460      4.32632        -0.038866      0.030238      0.032806
Li	      4.28964      4.00198      4.32250         0.078250     -0.018246      0.008433
Li	      4.21306      2.06676      6.25020         0.090867     -0.039060      0.013197
Li	      6.20474      4.26061      6.22370        -0.052571     -0.023739     -0.113427
Li	      6.34852      8.26898      6.51435        -0.023240      0.025097      0.015227
Li	      4.05521      4.29181      8.30554        -0.049832     -0.000402     -0.035853
Sc	      8.37013      2.20416      6.39281         0.135663     -0.065736     -0.056626
Sc	      2.03729      6.24296      4.27143         0.080746     -0.004298      0.126439
Mn	     10.45033      6.23555      8.42937        -0.029603      0.061382      0.079521
Mn	      0.03399      4.15207      4.20499        -0.088517     -0.085148      0.060788
Co	      4.12890      0.12561      4.20239        -0.148551     -0.011729     -0.153300
Co	      2.09578      4.17853      2.12839         0.007645     -0.035377     -0.029181
Co	      4.23348      6.19313      6.36291         0.563925     -0.012209      0.150695
Ni	      6.30891     10.30616      8.53285        -0.073802      0.209139     -0.239851
Ni	      6.23022      6.35546      8.37607         0.084877     -0.101762      0.070202
O	      1.93776      2.18828      2.13197        -0.044446      0.019388      0.004406
O	      4.06996      4.32515      2.18885         0.020635      0.033415     -0.050453
O	      4.21666      2.01159      4.27236        -0.124750     -0.150582      0.045668
O	      6.38576      4.11297      4.16750         0.185464      0.214024      0.328064
O	      6.32691      2.08877      6.52940        -0.026981      0.021336      0.108974
O	      8.42397      4.19361      6.51911        -0.026892      0.021670      0.006946
O	      1.95200      4.18343      4.07954         0.008022     -0.088385     -0.001638
O	      4.14121      6.38873      4.10288         0.096002      0.014884     -0.179024
O	      4.19892      4.37563      6.28677        -0.203120      0.077863      0.012439
O	      6.10328      6.24678      6.40793        -0.242942      0.025661     -0.302056
O	      6.41188      4.10662      8.57031        -0.004383     -0.043554      0.024537
O	      8.47019      6.13756      8.47084         0.075470      0.011083      0.033570
O	      2.20956      6.30682      6.34530        -0.017266      0.012362     -0.054665
O	      4.20913      8.22115      6.13891        -0.106269     -0.055592     -0.137964
O	      4.18834      6.30410      8.40220        -0.154696      0.047112      0.126512
O	      6.30006      8.33505      8.48821        -0.001569     -0.191801     -0.014389
O	      6.27560      6.09460     10.52274        -0.086851     -0.019159      0.045607
O	      8.54823      8.35619     10.59513         0.026268      0.116689      0.026340
