# total energy = -219.64075406 eV
 
CRYSTAL
PRIMVEC
0.066153 6.288778 6.358865 
6.345379 0.020572 6.404430 
4.217799 4.210588 0.025895 
PRIMCOORD
36 1
Li	     10.39824      4.32448      6.51761         0.078674      0.021348      0.109880
Li	      8.38983      2.24458      6.45674        -0.054750     -0.091913      0.033208
Li	      6.28498      4.24716      2.29468        -0.070154      0.058055      0.017620
Li	      4.16721      2.15364      2.17728        -0.070766      0.045241      0.099781
Li	      8.37445      4.27706      4.45834        -0.063722      0.045009     -0.134046
Li	      6.29423      2.17648      4.28582        -0.054118      0.028259     -0.080594
Li	      8.56451      4.15693      8.28067        -0.003706     -0.033888      0.152624
Li	      4.36790      1.93129      6.25499         0.055356      0.026827     -0.065983
Li	      6.47585      4.14697      6.34369        -0.058170     -0.032118     -0.013670
Sc	     10.56917      8.45850     10.74121        -0.015030     -0.166196     -0.301055
Sc	      6.41788      8.40832      6.44419         0.032258      0.019390      0.094959
Mn	      8.48013      6.34585     10.66750         0.252059      0.001974     -0.232415
Mn	      4.30159      4.23517      8.49709         0.128765     -0.157652      0.070913
Co	      0.04389      2.04994      2.08282         0.335419     -0.136502      0.945773
Co	      6.45620      6.14758      4.24720        -0.004024     -0.111612     -0.385673
Co	      4.23863      4.22339      4.20644         0.130169     -0.024084     -0.277463
Co	      6.38486      6.28621      8.49455         0.075985     -0.046786      0.000331
Cu	      4.28009      6.29780      6.44311        -0.007921     -0.053884      0.043385
O	      8.47237      4.21030      6.36404         0.027318     -0.004317     -0.023830
O	      1.95612      2.11979      2.35558        -0.009067     -0.007625      0.049391
O	      4.24255      4.35791      2.27839        -0.095826     -0.036078     -0.001526
O	      4.16305      2.32813      4.18868        -0.046880     -0.001801      0.140860
O	      6.12498      4.26251      4.25581        -0.020695      0.097475      0.077351
O	      6.37447      2.07161      6.72478        -0.082730      0.090973     -0.935735
O	      2.17713      4.33807      4.24315        -0.000070      0.065973      0.078617
O	      4.13459      6.24010      4.07355        -0.206376      0.065993      0.125482
O	      4.25880      4.29342      6.21335         0.073456      0.136101     -0.017123
O	      6.30008      6.31536      6.19210         0.066343      0.007145      0.148000
O	      6.25863      4.13749      8.56466        -0.006455      0.026468      0.006036
O	      8.54797      6.43118      8.66817        -0.106726      0.033808      0.006036
O	      2.25855      6.27949      6.16670         0.067617      0.037817      0.073175
O	      4.33560      8.30223      6.38867        -0.081023     -0.042532      0.093455
O	      4.37484      6.15184      8.61153        -0.052143      0.026095      0.013155
O	      6.56690      8.36668      8.47603        -0.038632      0.049752     -0.043546
O	      6.58326      6.28442     10.60695        -0.130172      0.021897      0.054060
O	      8.52744      8.24767     10.71044        -0.044262      0.041390      0.078570
