# total energy = -220.45516484 eV
 
CRYSTAL
PRIMVEC
-0.070733 6.301035 6.203735 
6.352601 -0.047875 6.180979 
4.203353 4.154494 -0.000582 
PRIMCOORD
36 1
Li	      4.22061      4.11474      0.12512        -0.138101     -0.074542     -0.078020
Li	      2.15590      2.08463      0.11625         0.143769      0.033185     -0.036086
Li	      2.04824      0.11343      1.99662        -0.047394      0.011981     -0.016694
Li	      8.30703      4.21233      4.14328        -0.042590      0.029667      0.192075
Li	      2.18998      4.01327      1.99356        -0.004483      0.047955     -0.209985
Li	      2.19481      1.95437      4.04985         0.058676     -0.062893     -0.017444
Li	      6.33495      4.16413      6.18142         0.170728     -0.023527      0.019696
Li	      6.23781      8.37134      6.22177        -0.110291      0.016383     -0.027123
Li	      4.13327      6.31182      6.24384        -0.074399      0.177324     -0.027611
Sc	      6.36875      2.11504      4.21967        -0.350102      0.077224      0.079328
Sc	      4.18928      4.18882      4.15950         0.308811     -0.123132      0.078168
Mn	      2.05485      6.27630      4.19677         0.027183     -0.038884      0.427745
Mn	      6.25786      6.22463      8.19537         0.113546     -0.262372     -0.005751
Co	      0.11700      2.05687      2.00646         0.295655      0.015145     -0.245499
Co	      8.39847      6.07351      6.19892        -0.084015      1.449963     -0.059428
Co	      4.15767      8.37572      4.22671         0.029097      0.017110     -0.495627
Co	      4.17503      4.16429      8.22141         0.063918      0.070404     -0.159071
Ni	      4.10535      2.09846      1.97043         0.118422     -0.095181     -0.308115
O	      2.12056      2.08477      2.07176        -0.166729     -0.122056      0.044123
O	      4.21489      4.13842      2.10417         0.033068     -0.022055      0.154761
O	      4.24420      2.09305      4.09104         0.069500     -0.114556      0.532927
O	      6.26920      4.10116      4.11352        -0.179440     -0.029938     -0.031480
O	      6.29299      2.06924      6.21447        -0.834531     -0.173439      0.118954
O	      8.41584      4.28657      6.18232        -0.006964     -0.152802      0.002790
O	      2.06034      4.38556      4.09513        -0.741581     -0.146335      0.043272
O	      4.00665      6.35266      4.08758         0.003992      0.413009      0.050010
O	      4.19280      4.03445      6.27871        -0.012957     -0.398491      0.227267
O	      6.33439      6.19076      6.34173         0.863622     -0.188753     -0.046511
O	      6.14720      4.23297      8.42419        -0.127581      0.100678     -0.047403
O	      8.30459      6.37659      8.30154        -0.098027     -0.125881     -0.364523
O	      2.05017      6.31028      6.00518         0.003545      0.023893     -0.180630
O	      4.14960      8.35626      6.06042         0.085022     -0.014912      0.329651
O	      4.34849      6.15026      8.26005         0.080808      0.006564     -0.027271
O	      6.36659      8.17239      8.25473        -0.049963     -0.055384     -0.006075
O	      6.43857      6.19157     10.22055        -0.007142     -0.345199     -0.018931
O	      8.38612      8.21488     10.18588         0.606928      0.079844      0.108511
