# total energy = -139.69378387 eV
 
CRYSTAL
PRIMVEC
2.062326 2.062152 0.000037 
-2.099871 2.099766 4.128484 
8.370189 -8.369327 8.228233 
PRIMCOORD
24 1
Li	      1.02936      1.03269      1.02885        -0.001199      0.000347      0.000811
Li	      1.01027      3.11290      3.09414        -0.002280      0.002004      0.000326
Li	      3.19677     -1.13575      5.11008        -0.007741      0.007362      0.002052
Li	      5.12534     -1.00058      3.11874         0.006228     -0.007027     -0.000588
Li	      5.12876     -3.07073      9.30483         0.008998     -0.007797     -0.001318
Li	      7.36266     -3.24186      7.16929        -0.004913      0.007129     -0.000434
Mn	      1.02389      1.03823      5.15099        -0.005183      0.005368     -0.006222
Mn	      7.30291     -5.24313      9.26542         0.009203     -0.009840      0.011376
Mn	      5.19385     -1.07225      7.20772         0.002903     -0.001510     -0.005344
Ni	      5.21274     -3.15307      5.14318        -0.002463      0.000184      0.001247
Ni	      1.04377     -1.04358      3.09902         0.006699     -0.007587      0.006933
Ni	      7.28282     -3.16097     11.31735        -0.002783      0.004484     -0.006690
O	      3.10799     -1.04550      2.96194         0.093896     -0.096025     -0.030988
O	      2.97525      1.14903      5.16946        -0.038249      0.038944      0.102504
O	      5.08686     -3.02757      7.21365        -0.033599      0.034117      0.107021
O	      5.17541     -1.05439      9.14309         0.104894     -0.100974     -0.038400
O	      7.27148     -5.21177     11.19062         0.106053     -0.106766     -0.049401
O	      9.27189     -5.14982      9.26305        -0.018722      0.020236      0.090347
O	      1.05548      1.00691      3.22607        -0.109941      0.108777      0.054448
O	      1.11738      3.00700      5.15392         0.022354     -0.022470     -0.104236
O	      3.23883     -1.17930      7.20113         0.029853     -0.033643     -0.099580
O	      5.21226     -1.09001      5.27175        -0.098645      0.097758      0.039071
O	      7.31831     -5.25894      7.32638        -0.096691      0.098839      0.025672
O	      7.41396     -3.29172      9.24707         0.031331     -0.031911     -0.098608
