# total energy = -223.05725367 eV
 
CRYSTAL
PRIMVEC
0.002387 6.207635 6.194827 
6.267516 0.001405 6.195794 
4.174653 4.135286 0.004731 
PRIMCOORD
36 1
Li	      2.12779      8.22731      6.24428         0.041536      0.019069      0.229017
Li	      2.09164      6.19409      8.23459        -0.053107      0.063064     -0.127701
Li	      4.19757      8.27770      8.24768        -0.133385      0.063422     -0.004770
Li	      4.21570      6.19581      2.12357         0.158105     -0.013994      0.076669
Li	      6.23011      6.20295      4.10791        -0.053550      0.050687     -0.255674
Li	      4.20092      4.15715      4.09023        -0.012960      0.035119     -0.151353
Li	      6.23306      8.30058      6.24369        -0.120962      0.124117      0.120074
Li	      4.13310      4.17458      8.24858        -0.051348     -0.000069      0.022594
Li	      6.23819      6.23792      8.21232         0.004721     -0.013445      0.029611
Sc	      4.14283      6.18696     10.14273         0.250009      0.030131     -0.012445
Sc	      8.24413      6.32606      6.26584         0.196515     -0.305997      0.238502
Mn	      4.25007     10.28558      6.26346        -0.011321     -0.042750      0.222496
Mn	      6.25090      8.30580     10.23039         0.011609     -0.195372      0.163709
Co	      2.08541      4.01337      2.11094         0.167461      1.224189      0.100925
Co	      6.23625      4.16129      6.24383         0.155737     -0.011839     -0.184713
Co	      4.19707      8.23630      4.14191        -0.030830      0.052611      0.107802
Co	      2.13049      6.19319      4.14263        -0.116043     -0.145904     -0.211760
Co	      4.16350      6.22713      6.22298        -0.194431      0.092702      0.068667
O	      2.07997      2.24206      2.09311        -0.011264     -0.397464      0.043235
O	      4.11933      4.14232      1.92847        -0.152206     -0.121195     -0.117871
O	      4.20165      2.02733      4.17824         0.021750      0.055375      0.038080
O	      6.30490      4.10359      4.14512        -0.315789      0.190014      0.948057
O	      6.23573      2.04177      6.06506        -0.077292      0.584624     -0.057594
O	      8.36866      4.17680      6.17618        -0.606543     -0.118335     -0.110952
O	      1.96303      4.26719      4.12361         0.003900     -0.180745      0.006432
O	      4.04411      6.32039      4.26293         0.029543     -0.116857      0.145739
O	      4.20350      4.24339      6.21652         0.675166      0.062892     -0.022442
O	      6.16490      6.18415      6.19848        -0.052458     -0.652565     -0.016674
O	      6.38923      4.11231      8.37410         0.170475     -0.003049     -0.868098
O	      8.37747      6.06485      8.35909        -0.012250     -0.240345     -0.016968
O	      2.17835      6.20742      6.07795        -0.032522     -0.051809      0.040539
O	      4.18244      8.21499      6.06726         0.144785     -0.011363     -0.080994
O	      4.17470      6.21994      8.16641        -0.030967     -0.020719     -0.117187
O	      6.27228      8.26017      8.41892         0.025759     -0.003680     -0.189945
O	      6.38045      6.11174     10.44912        -0.014755      0.003875     -0.029843
O	      8.45920      8.17530     10.30243         0.026910     -0.004397     -0.025164
