# total energy = -209.81273032 eV
 
CRYSTAL
PRIMVEC
0.025186 6.285227 6.338391 
6.266945 0.040234 6.323194 
4.204784 4.206837 0.000086 
PRIMCOORD
36 1
Li	      2.11560      2.14202      0.18315         0.030834      0.021292     -0.045684
Li	      2.01506      0.12354      2.03324        -0.057998      0.031096      0.029925
Li	      4.14045      2.13091      2.08758        -0.036542      0.016067      0.037957
Li	      2.11835      4.08243      2.03863         0.055351     -0.001213     -0.032047
Li	      1.98625      2.26498      4.10135         0.038068     -0.000816     -0.114280
Li	      4.23635      4.13421      4.29362        -0.033508     -0.023925      0.093955
Li	      8.35353      6.40057      6.37930        -0.003601     -0.004159     -0.064326
Li	      6.21737      4.26406      6.38244        -0.035992     -0.008669     -0.056545
Li	      4.28516      6.24530      6.40301        -0.050122      0.013153     -0.019669
Sc	      8.29184      4.28196      4.22047        -0.098737      0.054179      0.100391
Sc	      2.25149      6.20760      4.20120         0.098386     -0.072430      0.063919
Mn	      4.19350      4.20141      0.05948        -0.004898     -0.035965      0.136139
Mn	      6.23877      2.14437      4.23858        -0.015617      0.089101      0.106277
Cu	      6.31726      6.28942      8.33887         0.053589     -0.013790      0.127213
Ni	      0.07404      2.08724      2.08212        -0.053098     -0.037647     -0.067153
Ni	      0.08142      4.15076      4.20482        -0.110025      0.043462      0.038290
Ni	      6.30504      8.40336      6.33846        -0.032082      0.060782     -0.009111
Ni	      4.18113      4.23450      8.37636         0.019445      0.001971      0.008326
O	      6.29441      6.48265      6.41533        -0.005282     -0.136889     -0.077996
O	      1.99336      2.07809      2.11423         0.197387      0.045024     -0.021431
O	      4.19334      4.30409      1.90229        -0.003170     -0.179849     -0.038718
O	      4.36019      2.11047      4.18576         0.005879     -0.010614      0.054098
O	      6.27928      4.01996      4.27126        -0.013569     -0.043931     -0.004067
O	      6.30575      1.98979      6.21360        -0.014908     -0.025225     -0.076502
O	      8.57200      4.20171      6.26846        -0.015919      0.024648      0.005904
O	      2.08974      4.20747      4.26593         0.121444      0.009704     -0.114796
O	      4.22666      6.35477      4.15604        -0.002330     -0.115580      0.068619
O	      3.97578      4.24318      6.40122         0.298119     -0.010295     -0.152604
O	      6.24378      4.27666      8.45622         0.129867      0.072802     -0.132636
O	      8.40273      6.37351      8.44552        -0.105986     -0.125624     -0.040125
O	      1.99055      6.15638      6.34157        -0.005499      0.132662     -0.018268
O	      4.34832      8.55033      6.29462        -0.160928     -0.008584      0.080608
O	      4.34658      6.27395      8.46171        -0.035957      0.124892      0.006823
O	      6.33339      8.28346      8.59728        -0.104021      0.045878      0.071197
O	      6.30588      6.39349     10.64659        -0.004840      0.054075     -0.024077
O	      8.30132      8.41294     10.52495        -0.043741      0.014418      0.080398
