# total energy = -208.89113617 eV
 
CRYSTAL
PRIMVEC
0.052538 6.270090 6.216896 
6.270460 0.022668 6.246189 
4.201475 4.220404 -0.005503 
PRIMCOORD
36 1
Li	      2.23567      8.25778      6.23663         0.017066      0.005187     -0.006720
Li	      2.12408      0.07114      2.06771         0.081018      0.001443      0.013572
Li	      4.11270      0.05934      4.13265        -0.049997     -0.029650      0.078474
Li	      6.28519      6.23210      4.17007        -0.028562      0.024696      0.066698
Li	      4.25537      4.24909      4.22536         0.031014      0.022829      0.041911
Li	      6.27039      4.31923      6.15670         0.052198      0.075609     -0.100599
Li	      2.23196      6.24406      4.20227         0.001298     -0.066334      0.075437
Li	      2.21073      4.18657      6.20119        -0.039301     -0.033631     -0.140935
Li	      4.09424      6.29370      6.16604         0.010025     -0.039523     -0.001852
Sc	      0.17012      6.22807      6.19649        -0.168997     -0.074455      0.127977
Sc	      6.34974      2.29296      4.20036         0.094829      0.138072     -0.071724
Mn	      4.13396      2.06848      2.12153         0.101321     -0.225421     -0.040918
Mn	      4.22096      8.34261      4.14100         0.378994      0.042624      0.474703
Cu	      8.35868      4.25434      8.33730         0.255158     -0.429421      0.053103
Cu	      6.31054      6.32844      8.29730        -0.058953     -0.314956     -0.182611
Ni	      4.26696      6.27091      2.09798        -0.062739      0.092383      0.004995
Ni	      8.35049      6.34410      6.26932        -0.320787      0.112042     -0.287746
Ni	      4.19162      4.21590      8.24301        -0.003774      0.199214      0.076255
O	      4.18785      4.00977      6.28006         0.293272      0.800957      0.051156
O	      6.48333      6.31313      6.32266        -0.844619     -0.102557      0.163315
O	      2.21445      2.13060      2.03052         0.074428      0.265249      0.006976
O	      4.14846      4.09490      2.10291        -0.104910     -0.053620      0.035406
O	      4.21707      2.09684      4.03714         0.053341      0.022190     -0.127362
O	      6.31253      4.20645      4.13153        -0.066374     -0.091081     -0.075672
O	      6.15612      2.09324      6.28542         0.635641     -0.052637      0.108786
O	      8.37072      4.41258      6.41947         0.290945     -0.543881     -0.618998
O	      1.93463      4.17763      3.99876        -0.375910      0.059377      0.682056
O	      4.23856      6.45463      4.09174        -0.095779      0.058560     -0.181078
O	      6.27740      4.21496      8.45531        -0.094096     -0.029433     -0.197929
O	      8.36700      6.35865      8.30456         0.244120     -0.095356      0.081469
O	      2.11291      6.27988      6.24759         0.009107     -0.034977      0.064065
O	      4.22638      8.39011      6.13567        -0.030835     -0.104782      0.039216
O	      4.32575      6.39262      8.23505        -0.216009      0.133123      0.036800
O	      6.21182      8.29529      8.30264        -0.115757      0.375919      0.108953
O	      6.28920      6.18794     10.37497        -0.009503     -0.052903     -0.225227
O	      8.49875      8.44328     10.31106         0.063127     -0.054856     -0.131951
