# total energy = -209.73391760 eV
 
CRYSTAL
PRIMVEC
-0.038106 6.330177 6.212590 
6.342830 -0.015038 6.191284 
4.207279 4.183620 0.011037 
PRIMCOORD
36 1
Li	      4.19612      4.10759      0.08869         0.002230     -0.041387      0.017259
Li	      6.21972      4.13990      2.20445        -0.062826     -0.101261     -0.021856
Li	      4.17514      2.23296      2.16968         0.064111      0.028426     -0.108822
Li	      6.18765      2.16106      4.17598         0.012840     -0.021685     -0.098323
Li	      2.18212      4.14008      2.07072         0.040482      0.057560      0.052053
Li	      2.32305      2.00982      4.07599        -0.021070     -0.030161     -0.003151
Li	      4.30648      4.01626      4.08070         0.065954     -0.012986     -0.007471
Li	      4.19505      2.14114      6.03091        -0.042244      0.062791      0.031174
Li	      8.36277      8.37140      8.30424        -0.061536      0.028640     -0.049989
Sc	      4.23517      6.20717      2.06728        -0.193611     -0.080887      0.003317
Sc	      4.21567      6.28124      6.36292        -0.066245     -0.083371      0.099018
Mn	      8.37419      6.29826     10.34020         0.006303      0.080945      0.013623
Mn	      6.31441      8.38039      6.24629         0.057459     -0.008498      0.077027
Cu	      8.42871      2.13851      6.24550        -0.224674      0.159931      0.030364
Cu	      6.38661      4.14281      6.15957        -0.212831      0.212252      0.098129
Cu	      6.31032      4.24113     10.29615         0.052958     -0.041479     -0.147885
Ni	      4.14667      0.08495      4.07626         0.162669     -0.268013     -0.130832
Ni	      6.34346      6.31957      8.28445        -0.012105      0.051724     -0.105401
O	      8.35984      4.23966      5.99983         0.284842     -0.154207      0.303577
O	      6.30715      8.36340      8.09402         0.045209      0.182203     -0.002908
O	      8.49280      8.30147     10.50194        -0.089237      0.051686      0.118179
O	      2.07858      2.11216      1.94910         0.174772      0.031467      0.043907
O	      4.17970      4.24530      2.08780        -0.010071     -0.006449      0.022765
O	      4.25451      1.95882      4.08689         0.007987      0.268778      0.071805
O	      6.34717      4.18600      4.24344        -0.226435     -0.025653     -0.129870
O	      6.32120      2.19226      6.18885         0.033978     -0.239902     -0.094675
O	      1.99509      4.36512      4.22622         0.059133     -0.070160      0.047130
O	      4.00421      6.43449      4.18010        -0.018679     -0.085141     -0.003491
O	      4.05587      4.23459      6.14221         0.037070     -0.122723      0.025844
O	      6.28310      6.41727      6.19636         0.073156      0.011320     -0.211145
O	      6.33566      4.24066      8.18036         0.052038     -0.138319      0.054831
O	      8.40679      6.33685      8.47783         0.125900     -0.001579     -0.050826
O	      2.09525      6.16696      6.11653        -0.066812      0.147176      0.030965
O	      4.32726      8.38086      6.16936        -0.033133      0.074658      0.086265
O	      4.25002      6.26251      8.38815        -0.099168     -0.017552     -0.278689
O	      6.43652      6.22635     10.32721         0.081590      0.101854      0.218101
