# total energy = -208.93349489 eV
 
CRYSTAL
PRIMVEC
-0.004938 6.324554 6.405455 
6.210666 -0.023619 6.424171 
4.110570 4.198505 0.014692 
PRIMCOORD
36 1
Li	      4.22303     10.38482      6.40748         0.018294     -0.106651     -0.083528
Li	      2.15482      8.27031      6.36969         0.049597     -0.084938     -0.036221
Li	      2.08450      6.30164      8.38226         0.058720      0.005192     -0.060086
Li	      4.19317      6.20769     10.61957         0.036727     -0.074466     -0.000106
Li	      8.24371      4.18873      8.54764        -0.042210      0.000430     -0.046033
Li	      2.03414      6.33862      4.52930        -0.032806      0.039995      0.083813
Li	      2.01682      4.42351      6.38237        -0.051157      0.123395      0.020838
Li	      3.92615      6.40821      6.50351        -0.053559      0.111137      0.054705
Li	      8.21509      8.49010      8.64703        -0.040375      0.010259      0.079386
Sc	      4.08832      6.24336      2.15994         0.005861      0.165973      0.089795
Sc	      2.10205      2.18057      4.22270        -0.075130     -0.014208     -0.009087
Mn	      8.25264      6.25407      6.40312        -0.065037     -0.144643     -0.030286
Mn	      6.19908      4.19799      6.40317         0.162073      0.066873      0.117471
Cu	      6.30324      8.34421     10.66168         0.208220     -0.071356      0.095394
Cu	      4.07901      4.23446      4.28875        -0.122738      0.174322     -0.016901
Cu	      4.05966      8.46613      4.42670        -0.016595      0.088097     -0.047415
Cu	      6.15813      6.29768      8.60189         0.107102     -0.130829     -0.111720
Ni	      4.14027      8.41014      8.49419        -0.004730     -0.115471     -0.542321
O	      2.01249      6.32848      6.46957        -0.040054     -0.033641      0.092454
O	      4.13240      8.42519      6.45326         0.033524      0.049975     -0.081742
O	      6.17901      8.28352      8.73714         0.034015      0.091003     -0.134196
O	      6.22435      6.14880     10.56360         0.048349      0.126300      0.240117
O	      8.29138      8.39162     10.70822        -0.259839      0.019712     -0.093851
O	      2.04577      2.10375      2.20293        -0.013835      0.047343      0.056841
O	      4.10304      4.17843      2.31929        -0.022443     -0.013598      0.212718
O	      4.19451      2.01652      4.41331        -0.005636     -0.070855      0.480250
O	      6.12462      4.24436      4.47403        -0.074127      0.028150     -0.029970
O	      6.10213      2.20306      6.37071        -0.031156      0.074009      0.105827
O	      8.12456      4.33787      6.40790        -0.035023      0.068538     -0.045178
O	      2.04012      4.22281      4.32147         0.277222      0.033630     -0.025199
O	      4.11669      6.49166      4.23220         0.038719     -0.080704     -0.051084
O	      4.22629      4.04601      6.29667        -0.041037     -0.054852     -0.104526
O	      6.30453      6.15515      6.42910         0.061606     -0.063875     -0.169002
O	      6.16541      4.19834      8.31858        -0.022892     -0.172493     -0.119877
O	      8.22774      6.28777      8.29549         0.093963     -0.000822     -0.069653
O	      4.22366      6.40450      8.50864        -0.183617     -0.090930      0.178375
