# total energy = -234.37513509 eV
 
CRYSTAL
PRIMVEC
0.008335 6.416034 6.288260 
6.241563 0.013126 6.283989 
4.177628 4.291448 -0.008373 
PRIMCOORD
36 1
Li	      4.19790      4.24731      0.05590        -0.091658      0.010967     -0.057847
Li	      2.10163      2.14619      0.08332        -0.001932      0.044342     -0.092765
Li	      4.06251      2.24821      2.02082         0.016256      0.000581     -0.036099
Li	      4.16614      6.40714      2.08158        -0.050876      0.026747     -0.009895
Li	      2.05775      2.17592      4.10707        -0.049254      0.042459      0.056939
Li	      6.26003      4.21397      6.34523         0.045987     -0.120608      0.105850
Li	      6.24253      4.30532     10.46587         0.043043      0.053261     -0.050216
Li	      2.17737      6.34308      4.08083         0.012771     -0.002519     -0.075420
Li	      6.37302      6.34750      8.37889         0.045828     -0.123210      0.058786
Sc	      6.29818      8.51271     10.50221         0.051642     -0.205085      0.105038
Sc	      4.22929      6.50780      6.25225         0.016267      0.147428     -0.178752
Mn	      8.33034      6.42402      6.35530         0.074658     -0.179762      0.064552
V	      8.40040     10.66705     10.52203         0.167094     -0.055145      0.388606
Cr	      2.02600      0.09675      2.08397        -0.113369     -0.062245     -0.074356
Cr	      4.15631      4.32415      4.17526        -0.300734      0.087217     -0.039802
Fe	      6.19897      8.63773      6.29325         0.004452      0.021671     -0.337227
Co	      1.95284      4.12395      2.17342         0.520585      0.044010     -0.006974
Ni	      4.25755      4.24865      8.39071         0.044025     -0.178867     -0.043280
O	      2.08938      2.15131      2.06999        -0.106644      0.261629     -0.017357
O	      4.12189      4.25607      2.18304        -0.169274     -0.019865      0.074336
O	      4.16201      2.12028      4.31712         0.055138      0.079636     -0.049753
O	      6.24118      4.25973      4.09924        -0.000677     -0.001037     -0.086163
O	      6.09124      2.13412      6.24141        -0.013327     -0.080852     -0.103823
O	      8.24714      4.22934      6.06298         0.041118      0.113836     -0.347933
O	      2.17566      4.29911      4.19201         0.039387      0.029198      0.301329
O	      4.18718      6.28823      4.24455         0.027147     -0.069950      0.080004
O	      4.15091      4.35708      6.25724         0.021324      0.046596     -0.038521
O	      6.33523      6.58979      6.34754        -0.034876     -0.048370      0.010157
O	      6.38965      4.29872      8.35724         0.128024      0.026540      0.051236
O	      8.35475      6.44703      8.27551        -0.017237     -0.291223      0.065756
O	      2.10228      6.39452      6.36830         0.072809      0.048318      0.132784
O	      4.27778      8.54789      6.26000        -0.104747     -0.082347      0.045889
O	      4.07434      6.42413      8.50871        -0.106139      0.116689     -0.107541
O	      6.32779      8.74873      8.33422        -0.074477      0.163837      0.118064
O	      6.10024      6.46178     10.37865        -0.065252      0.107115      0.039896
O	      8.37542      8.68903     10.42367        -0.127081      0.049010      0.054502
