# total energy = -237.12241335 eV
 
CRYSTAL
PRIMVEC
0.018624 6.157843 6.501014 
6.254342 0.017641 6.502745 
4.176441 4.113291 0.004397 
PRIMCOORD
36 1
Li	      8.25308      2.03734      6.47246        -0.060843      0.008695     -0.033269
Li	      4.27650      8.23908      8.55796         0.008991     -0.031763      0.008852
Li	      6.37935      8.16208     10.74643        -0.003695     -0.000895     -0.006550
Li	      6.24551      2.10646      8.49991         0.000708      0.010526     -0.064039
Li	      6.19705      4.12031      6.70647         0.022873     -0.011607      0.055262
Li	      8.28282      6.26926     10.82992        -0.035436     -0.034079      0.050528
Li	      6.27897      8.24294      6.68576        -0.042624      0.011252      0.000994
Li	      8.26829      8.12829      8.73078        -0.016007     -0.029575      0.034241
Li	      6.35442      6.30934      8.56083        -0.003354      0.002167     -0.036722
Sc	      4.20032      6.15504     10.75834         0.006084      0.001131      0.020929
Sc	      4.14380      4.13028      4.31313        -0.019935     -0.004134     -0.049914
Mn	      8.31030      4.08492      8.61984        -0.008021      0.023272      0.021859
V	      4.20890      6.22930      6.58960        -0.024334      0.067256      0.093718
Cr	      6.26346     10.24359      8.62475        -0.043026     -0.003995     -0.036027
Cr	      4.19738      2.07966      6.54056         0.063140     -0.002522      0.058848
Fe	      6.26147      4.10012     10.74071         0.147490      0.034656      0.154985
Co	      0.04424      6.17145      6.50031         0.061982      0.066933      0.014642
Co	      6.25518      6.18908      4.37181         0.079494      0.011790     -0.186337
O	      2.08839      2.11175      2.23681         0.009383     -0.073568      0.055832
O	      4.16603      4.10993      2.07772        -0.018151      0.016796      0.027678
O	      4.21424      2.09050      4.50331        -0.147970     -0.025668     -0.007697
O	      6.25671      4.14723      4.18851         0.029398     -0.123048     -0.029916
O	      6.17451      1.93638      6.49636         0.022130      0.039827      0.032156
O	      8.49909      4.16956      6.43501        -0.025212      0.071539     -0.022181
O	      2.07011      4.11457      4.31643         0.015525      0.120114     -0.004063
O	      4.12192      6.19094      4.57020         0.112057     -0.014799     -0.051932
O	      4.20303      4.21545      6.45052        -0.043563     -0.067934     -0.006580
O	      6.21672      6.14314      6.46600        -0.093547      0.048236      0.163750
O	      6.35725      4.10143      8.77833         0.001788      0.007988     -0.142844
O	      8.33798      6.03612      8.51228         0.010179     -0.005439     -0.026068
O	      2.06033      6.17632      6.63770         0.098564     -0.048423      0.014681
O	      4.18627      8.08698      6.47543         0.036368     -0.039070     -0.017484
O	      4.13150      6.19843      8.58222        -0.010795     -0.047733     -0.046632
O	      6.26702      8.30300      8.69226         0.034595      0.026892     -0.010432
O	      6.29867      6.10111     11.07724        -0.014386      0.011600     -0.005363
O	      8.47623      8.26091     10.80621        -0.149850     -0.016415     -0.024905
