# total energy = -93.36720296 eV
 
CRYSTAL
PRIMVEC
-2.045638 2.045500 4.126178 
0.026123 -4.176276 4.181782 
4.175953 -0.026325 4.181580 
PRIMCOORD
16 1
Li	      1.12515     -1.08282      7.22429         0.013338     -0.003929     -0.006335
Li	      1.07377     -3.17865      5.16122         0.002857     -0.014351     -0.004841
Li	      3.11305     -1.06776      5.27670        -0.015992      0.004754      0.005502
Li	     -1.01269      1.05552      3.15831        -0.004306      0.011728      0.004389
Mn	      1.06322      0.99392      5.19145         0.001755     -0.013978     -0.001122
Mn	      3.17257     -3.14526      7.30995         0.005376      0.009597      0.009854
Ni	     -0.98761     -1.05749      5.19170        -0.025200     -0.028855     -0.000932
Ni	      1.04771     -1.06760      3.12824         0.025782      0.027526      0.001731
O	      3.07168     -3.17303      9.25785        -0.008277     -0.109137     -0.038734
O	      1.09109      1.09458      7.13886         0.111709      0.004643     -0.033810
O	     -1.14162     -1.07209      7.25839        -0.036717     -0.121346      0.102020
O	      1.06252     -0.91377      5.19498         0.121008      0.040926      0.103214
O	      1.09914     -1.20068      9.48918        -0.111301     -0.003585      0.031068
O	      1.19061     -3.15459      7.42582         0.004130      0.110501      0.033532
O	      3.17382     -1.23779      7.30661        -0.121345     -0.038141     -0.104456
O	     -0.84409      0.99243      5.18747         0.037183      0.123645     -0.101080
