# total energy = -231.87239118 eV
 
CRYSTAL
PRIMVEC
-0.011692 6.341114 6.405129 
6.227235 0.009669 6.383806 
4.159295 4.220846 -0.001321 
PRIMCOORD
36 1
Li	      6.16942      4.30616      2.27775         0.037253     -0.009777     -0.011621
Li	      4.03928      2.24646      2.34418        -0.000827      0.030729     -0.104661
Li	      4.13865      0.15387      4.19620        -0.041947     -0.010144      0.001663
Li	      2.21183      4.09124      2.05179        -0.021747      0.095895     -0.072592
Li	      2.18050      2.05922      4.10321        -0.011088     -0.027435     -0.012153
Li	      4.22538      4.08451      4.03763        -0.002579      0.032292     -0.017585
Li	      4.13956      2.11298      6.17264        -0.031982      0.003454     -0.022400
Li	      4.14509      8.41707      4.28924        -0.001167      0.007649      0.020489
Li	      4.14590      6.35100      6.43518        -0.016373      0.018285      0.102079
Sc	      6.22565      4.29522      6.20628         0.004268      0.071023     -0.031926
Sc	      2.14235      6.33805      4.30589         0.072632      0.001081      0.010392
Mn	      4.13520      4.28518      8.55807        -0.071148      0.038373     -0.062308
V	      6.17723      8.39964      6.35447         0.004264      0.029689      0.084988
Cr	      4.18403      6.28897      2.15624         0.024527      0.003352     -0.068545
Cr	      6.19768      6.32386      8.56897         0.000366      0.015219     -0.051194
Fe	      2.18532      2.15560      0.10591        -0.051304     -0.137208     -0.145431
Ni	     10.34216      4.24448      6.42273         0.010637      0.006032     -0.097414
Ni	      6.12069      2.14114      4.24669         0.135294      0.004482     -0.017177
O	      4.16712      2.12664      4.24451        -0.224403     -0.000711     -0.039177
O	      2.01516      2.11843      2.03333        -0.014781      0.026850      0.112968
O	      4.11431      4.35505      2.06796         0.003381     -0.012205      0.127120
O	      6.19492      4.18817      4.28048         0.038531      0.147890      0.018024
O	      6.32818      2.13004      6.42850        -0.007469      0.051515      0.108016
O	      8.29486      4.12863      6.39588        -0.122943      0.042981     -0.027462
O	      2.08607      4.22928      4.58020         0.057586     -0.079762     -0.063347
O	      4.15325      6.36672      4.12173        -0.063290     -0.014840     -0.007758
O	      4.06824      4.22891      6.61587         0.047395      0.013145      0.131560
O	      6.20336      6.41546      6.53689        -0.012687     -0.158296      0.025264
O	      6.08557      4.26662      8.49744        -0.066640     -0.053228      0.018899
O	      8.29124      6.47828      8.56744         0.023486      0.017436      0.033036
O	      2.04322      6.26778      6.38896         0.120836      0.141629     -0.020814
O	      4.18809      8.46230      6.45295        -0.035423     -0.082207      0.019000
O	      4.22763      6.15674      8.55074        -0.020711     -0.148080      0.018218
O	      6.33301      8.36118      8.44043         0.096380      0.042600     -0.001787
O	      6.25000      6.35337     10.56861         0.089920     -0.093664      0.043976
O	      8.25720      8.42880     10.58839         0.051752     -0.014043     -0.000339
