# total energy = -238.52862903 eV
 
CRYSTAL
PRIMVEC
0.043836 6.308972 6.213936 
6.432069 0.010227 6.247732 
4.296652 4.236880 -0.001568 
PRIMCOORD
36 1
Li	      2.17380      2.14828      0.10781         0.010830     -0.012095     -0.043505
Li	      2.14414      0.17023      2.18141         0.005112     -0.074140     -0.032024
Li	      4.07583      2.09706      2.16467        -0.049586      0.022319     -0.028208
Li	      4.19866      0.15244      4.18050         0.000152      0.006668     -0.028071
Li	      2.16001      4.08560      2.07011         0.005086      0.065998      0.032894
Li	      2.28151      1.99065      4.00727         0.027790     -0.007308      0.092308
Li	      4.37281      4.16962      4.06065        -0.011747     -0.004011     -0.058060
Li	      0.05892      4.21169      4.13191         0.020277      0.029585      0.001583
Li	      6.43687      6.29483      8.36288        -0.009134     -0.007495      0.016901
Sc	      6.46724      8.35861      6.26131        -0.015716      0.036439      0.002019
Sc	      4.37715      4.29185      8.38993         0.010235      0.085325      0.045126
Mn	     10.63909      4.24576      6.28152         0.034893     -0.069514     -0.005148
V	      2.19570      6.25001      4.10680        -0.070190     -0.002973      0.032442
Cr	      0.11739      2.08999      2.08924         0.025357      0.010219      0.033706
Cr	      6.52544      4.24536      6.19952        -0.041924      0.019977      0.012049
Fe	      6.30051      2.16807      4.09707         0.160912     -0.121239      0.023930
Fe	      4.29356      6.42921      6.24826        -0.061761     -0.058011     -0.149206
Co	      4.30014      2.10282      6.21213        -0.018239     -0.047085     -0.000020
O	      2.05162      2.11296      2.10771         0.001378      0.024050      0.007182
O	      4.30585      4.32716      1.91114         0.005993     -0.031077      0.003867
O	      4.37134      2.13384      4.22624        -0.138652      0.011242     -0.019766
O	      6.47777      4.10930      4.22840         0.012651      0.135578     -0.023148
O	      6.50786      2.17175      6.26658        -0.017949     -0.016971     -0.013576
O	      8.54026      4.36565      6.21308        -0.028947     -0.014274      0.016992
O	      2.14264      4.42320      4.16849        -0.028012     -0.142121     -0.046126
O	      4.15564      6.33583      4.13138         0.124697      0.004707      0.005782
O	      4.36215      4.19675      6.23971         0.039128      0.031146      0.014002
O	      6.32181      6.28054      6.14707         0.076315     -0.025738     -0.019172
O	      6.44820      4.16773      8.24257         0.021329     -0.003315      0.000158
O	      8.71009      6.37235      8.34785         0.026314      0.021037     -0.083241
O	      2.27346      6.25124      6.12122        -0.074970     -0.005282      0.060998
O	      4.38330      8.42244      6.21134         0.012862      0.133756      0.005483
O	      4.33712      6.31227      8.18440        -0.007223     -0.049215      0.181287
O	      6.56195      8.38633      8.32438         0.004884     -0.036157     -0.074395
O	      6.56128      6.38186     10.52851        -0.058222     -0.030479      0.006942
O	      8.53760      8.21657     10.39540         0.006079      0.120456      0.028014
