# total energy = -236.38437316 eV
 
CRYSTAL
PRIMVEC
-0.022260 6.325560 6.422090 
6.298912 0.006941 6.392707 
4.218437 4.216798 -0.014817 
PRIMCOORD
36 1
Li	      2.08268      8.34639      6.40326         0.016158     -0.029352     -0.027701
Li	      2.14341      6.26525      8.41629         0.003482     -0.049197      0.011147
Li	      8.39145      6.32394      6.51546         0.017992      0.008183      0.015541
Li	      6.31874      4.24053      6.50838         0.040895     -0.010190     -0.022500
Li	     10.42014      8.45175     10.63783        -0.054160      0.009098     -0.074657
Li	      2.11084      6.35215      4.30335         0.061527     -0.055654     -0.018326
Li	      4.12254      6.36934      6.48819        -0.086084      0.032961      0.012522
Li	      8.41203      8.40697      8.54225         0.009575     -0.043833      0.094640
Li	      6.30108      6.32826      8.40263        -0.024402     -0.002216     -0.033945
Sc	      8.41393     10.46091     10.69058        -0.026111     -0.104706     -0.002606
Sc	      6.26072      6.38482      4.39163        -0.204270      0.098684     -0.123237
Mn	      6.27830      2.18224      8.45457         0.023652     -0.043478      0.074348
V	      4.20419      4.25977      4.44783         0.011385      0.000141     -0.008979
Cr	      0.02679      6.31400      6.40831        -0.021831      0.040755      0.039452
Cr	      8.37336      4.28643      8.44341         0.071412     -0.005693      0.092862
Fe	      4.23923      8.33060      8.46017        -0.137618      0.204630      0.004144
Fe	      6.38277      8.37264     10.68052        -0.074015      0.101931      0.029401
Cu	      6.28451      8.45858      6.48261         0.034285      0.038816     -0.052468
O	      2.02478      2.20792      2.15008         0.044847      0.045731     -0.020242
O	      4.15020      4.26188      2.08735         0.013403     -0.064458     -0.076156
O	      4.18737      2.21391      4.15497         0.057165     -0.114174      0.022317
O	      6.22803      4.22806      4.30434         0.023681     -0.040491      0.056090
O	      6.32649      2.00834      6.26483         0.002177     -0.016593      0.043832
O	      8.48168      4.24783      6.40156         0.056449     -0.000936     -0.028452
O	      2.24689      4.21620      4.08245        -0.069548      0.032505     -0.232445
O	      4.22005      6.17499      4.25835         0.069171      0.180071     -0.016759
O	      4.17060      4.21303      6.19786         0.017512      0.013716      0.072637
O	      6.31547      6.47994      6.36993        -0.013586     -0.048684      0.168397
O	      6.37790      4.13560      8.51124        -0.054739      0.089505     -0.057928
O	      8.57477      6.28606      8.47889        -0.026231      0.068403     -0.075974
O	      2.00071      6.19024      6.43641        -0.004499     -0.045356     -0.000363
O	      4.19832      8.49610      6.50530        -0.022237     -0.036635      0.027574
O	      4.13880      6.43000      8.62800        -0.000773     -0.159126      0.025209
O	      6.18912      8.43354      8.71852         0.128898     -0.015332     -0.012073
O	      6.24644      6.35971     10.78276        -0.004007     -0.089522      0.047329
O	      8.32816      8.47134     10.63356         0.120450      0.010499      0.047370
