# total energy = -236.56097278 eV
 
CRYSTAL
PRIMVEC
0.008727 6.223851 6.398320 
6.325028 0.001333 6.405739 
4.227826 4.164945 -0.010075 
PRIMCOORD
36 1
Li	      6.23826     10.24039      8.54076         0.013571      0.050203      0.010670
Li	      4.35248      2.23191      2.13703         0.023628     -0.005095      0.023724
Li	      6.26320      2.19060      4.14247        -0.054261      0.061338      0.024718
Li	      2.22896      4.15249      2.09436         0.015919     -0.004508      0.013030
Li	      4.31163      4.10882      4.20443        -0.004194      0.054765     -0.024256
Li	      6.24835      4.15510      6.34546        -0.006999     -0.006835     -0.103095
Li	      2.12496      6.23767      4.31650         0.019166     -0.034994      0.073333
Li	      6.37399      8.37402      6.48978         0.014739      0.000710     -0.020783
Li	      4.14906      4.17288      8.45898         0.002895      0.004245     -0.021644
Sc	      8.38078     10.36802     10.58740        -0.115709      0.048515     -0.027306
Sc	      6.39485      6.34268      8.51549         0.031689      0.039513      0.003912
Mn	      4.16792      6.13197      6.45434        -0.009997      0.004332      0.010367
V	      0.07598      4.12840      4.22012         0.094701     -0.110247      0.122497
Cr	     10.51586      6.20292      8.51605         0.007407     -0.022621      0.120756
Cr	      4.22180      2.12663      6.39194        -0.020135      0.036646     -0.086932
Fe	      2.11229      2.07681      0.08898        -0.066558      0.039113      0.054944
Fe	      2.11747      2.02738      4.18595        -0.068877      0.151418     -0.010701
Ni	      4.29134     10.35795      6.44310         0.023949     -0.069486     -0.065226
O	      2.00168      2.12808      2.11657        -0.017621     -0.024046     -0.033490
O	      4.21961      4.23396      2.05686        -0.002544     -0.026468      0.102141
O	      4.11749      2.09312      4.37798         0.120921     -0.016237     -0.023506
O	      6.35240      4.25053      4.24976         0.076492     -0.137110      0.015193
O	      6.32028      2.06785      6.48586        -0.046688      0.154531     -0.093130
O	      8.50764      4.18502      6.34987        -0.077431      0.009256     -0.016139
O	      1.89464      4.07111      4.31770        -0.047711      0.045973      0.007875
O	      4.26099      6.27026      4.16004        -0.036793      0.030928      0.006870
O	      4.22167      4.19631      6.36047        -0.010171     -0.002873      0.052381
O	      6.33838      6.22620      6.36105         0.099909     -0.039273      0.023420
O	      6.28898      4.10327      8.71470        -0.039711     -0.034100      0.004524
O	      8.49747      6.23838      8.38049        -0.023926     -0.024669      0.030061
O	      2.17702      6.29143      6.39379         0.029234     -0.067877      0.032265
O	      4.15946      8.17972      6.33209         0.035345     -0.082541     -0.006623
O	      4.31682      6.23099      8.56692         0.020497     -0.034775     -0.009445
O	      6.35975      8.28463      8.59729         0.040700     -0.090311     -0.082324
O	      6.34770      6.11377     10.68167        -0.002026      0.106062     -0.048358
O	      8.62111      8.31083     10.83893        -0.019409     -0.003483     -0.059724
