# total energy = -240.02419133 eV
 
CRYSTAL
PRIMVEC
0.002955 6.405024 6.366922 
6.352105 0.007470 6.362718 
4.236703 4.269161 0.002898 
PRIMCOORD
36 1
Li	      0.02746      6.39942      6.36530         0.012143     -0.012025     -0.002635
Li	      8.43017      2.14566      6.38048        -0.025913     -0.031105     -0.010999
Li	      6.28953      2.28696      8.49200        -0.043359      0.100641      0.055382
Li	      8.40227      4.29822      8.41307         0.024867      0.001691     -0.044406
Li	      6.40283      4.20463      6.51345         0.033689     -0.049633      0.042980
Li	      6.38907      4.26101     10.53830         0.065506     -0.022151     -0.014468
Li	      8.43048      6.45513     10.57483        -0.013683      0.024869     -0.006283
Li	      2.08501      4.31010      6.29822        -0.046312      0.040336     -0.087757
Li	      8.58979      8.40820      8.53637         0.027949     -0.054888      0.075887
Sc	      8.51117     10.56491     10.71319         0.025732     -0.213311      0.081312
Sc	      4.21347      6.39521      6.34451        -0.023977      0.022303     -0.087300
Mn	      6.40627      8.49398     10.67238         0.055324      0.007581     -0.085069
V	      4.14607      4.30841      4.24905         0.087377      0.172100     -0.068676
Cr	      2.09085      2.18934      4.23594        -0.123540      0.000266      0.020168
Cr	      4.27016      2.15308      6.40211        -0.084605      0.033502      0.118122
Fe	      2.05174      0.02636      2.03530         0.049901     -0.020848      0.139030
Fe	      4.21941      8.60289      8.34593        -0.000201      0.016459      0.087080
Fe	      6.48186      6.21072      8.50690        -0.071218      0.231459     -0.048661
O	      2.20201      2.06152      2.22196         0.000718      0.019153      0.039435
O	      4.31190      4.19635      2.20067        -0.074007      0.009069      0.014947
O	      4.18335      2.16177      4.28684         0.041882     -0.058718     -0.009777
O	      6.30569      4.35920      4.15230         0.036021      0.100578     -0.028244
O	      6.26473      2.14411      6.20476         0.027773      0.007146      0.026354
O	      8.48231      4.41106      6.32588        -0.003361      0.045322     -0.047729
O	      2.22844      4.16198      4.21878        -0.090648     -0.055680      0.010721
O	      4.32722      6.38096      4.26789         0.044755      0.021369      0.017697
O	      4.25587      4.24216      6.24099         0.021536     -0.091400      0.027834
O	      6.39850      6.43854      6.36157         0.053467      0.014569     -0.081120
O	      6.33778      4.36125      8.48920        -0.024975     -0.249813     -0.007794
O	      8.41093      6.43922      8.38291         0.091400      0.028331     -0.062961
O	      2.17303      6.37292      6.49611        -0.001701     -0.009848     -0.106272
O	      4.25383      8.48796      6.46479        -0.003287     -0.043074     -0.145420
O	      4.24000      6.50482      8.49771         0.035781      0.000664      0.034762
O	      6.25769      8.59679      8.68561         0.033073     -0.026561      0.072484
O	      6.32203      6.41149     10.50080        -0.056394     -0.033952      0.081415
O	      8.37421      8.57054     10.65469        -0.081713      0.075598     -0.000040
