# total energy = -237.33940378 eV
 
CRYSTAL
PRIMVEC
-0.016830 6.305974 6.360792 
6.242666 -0.014305 6.357911 
4.166806 4.207207 -0.014429 
PRIMCOORD
36 1
Li	      0.03809      0.06401      0.04061        -0.021491      0.022344      0.021190
Li	      4.20213      6.28831     10.54459        -0.011188      0.016326      0.026793
Li	     10.20245      6.26178      8.50008         0.021878     -0.067873      0.031166
Li	      8.34045      4.38068      8.44724         0.016111      0.000401      0.031791
Li	      4.13740      4.22086      4.17737         0.033615     -0.068934      0.003561
Li	      8.37647      6.39293      6.52166         0.022331      0.057425     -0.002814
Li	      6.22982      4.06476      6.47102        -0.116955      0.065773      0.065460
Li	      8.32149      6.23824     10.43543        -0.001595      0.007447      0.039877
Li	      8.42943      8.23682      8.42466        -0.001160      0.008380     -0.094926
Sc	      2.11340      2.09737      4.24427         0.070409     -0.039132      0.081383
Sc	      4.09093      6.16813      6.28826         0.031180     -0.271824      0.054607
Mn	      6.22700      2.09538      4.28004         0.076734      0.240608      0.097617
V	      8.26126      2.30996      6.32946         0.470587     -0.098655      0.351988
Cr	      6.22309      4.17634      2.11421         0.081686      0.069895     -0.185416
Cr	      4.15312      8.44714      8.43508        -0.169194     -0.022451     -0.055230
Cr	      6.31328      6.26341      8.49280        -0.048180     -0.006653     -0.234501
Co	      2.06219      4.20166      6.33278         0.232620      0.066381     -0.236264
Cu	      6.22023      4.22254     10.52871        -0.077261     -0.067162      0.158595
O	      2.16251      2.00171      2.06001        -0.049078     -0.026900      0.093081
O	      4.26427      4.09915      2.09702        -0.097404      0.048910      0.020998
O	      4.21950      2.09553      4.07837        -0.048110      0.016068      0.015725
O	      6.28346      4.12097      4.12652         0.068015      0.062341     -0.070975
O	      6.38862      2.10010      6.37544        -0.373146     -0.102474     -0.192106
O	      8.34177      4.03240      6.39552        -0.025320      0.306419      0.047474
O	      2.00634      4.19011      4.40872        -0.134669     -0.101567     -0.546528
O	      4.24287      6.22605      4.26048        -0.069985      0.129022     -0.165586
O	      3.98466      4.16390      6.37109         1.294517      0.252326      0.029721
O	      6.23036      6.39782      6.36721        -0.109145     -0.561614      0.077717
O	      6.22277      4.32978      8.59602        -0.025409      0.090159     -0.197869
O	      8.23175      6.30250      8.46750         0.030537      0.005660      0.090044
O	      2.04655      6.24337      6.46395        -0.120654      0.545929      0.066489
O	      4.12275      8.39577      6.35976        -0.909939     -0.172606      0.123643
O	      4.14302      6.39734      8.40985         0.079235     -0.005046      0.095448
O	      6.16357      8.42706      8.32162        -0.051450     -0.104870      0.671271
O	      6.21652      6.49403     10.46855         0.021031     -0.251049      0.030419
O	      8.27279      8.39370     10.80331        -0.089152     -0.043005     -0.343846
