# total energy = -240.57815275 eV
 
CRYSTAL
PRIMVEC
0.029160 6.244410 6.491967 
6.270116 0.034169 6.487376 
4.181554 4.161697 0.021351 
PRIMCOORD
36 1
Li	      6.29795      6.26689     12.96136         0.008309     -0.006853      0.000828
Li	      4.24194      8.29354      8.65750        -0.022007     -0.024504      0.001637
Li	      4.20973      0.18517      4.26300        -0.040537      0.009234     -0.071996
Li	     10.45329      6.29011      8.69243         0.021200     -0.005917      0.063420
Li	      6.29993      6.22517      4.46060         0.009484     -0.007692      0.085107
Li	      8.33486      6.26821      6.50379        -0.029759      0.004214     -0.011509
Li	      6.15836      8.13274      6.62918        -0.046954     -0.035773      0.036934
Li	      4.32417      6.25929      6.47971         0.012852      0.014207      0.001668
Li	      6.31242      6.25152      8.59106         0.028083      0.013133     -0.022982
Sc	      8.47476      8.44107     12.96281         0.134948     -0.021667     -0.026959
Sc	      2.05976      6.16479      4.39889         0.056283     -0.045088     -0.000885
Mn	      4.20061      4.15357      4.40755         0.022351     -0.013868     -0.045522
V	      2.07226      6.28282      8.55886         0.029499      0.021938      0.052992
Cr	      6.21074      2.10692      4.32644        -0.066983      0.133793     -0.150843
Cr	      8.39676      4.20823      8.63952        -0.016674     -0.064799      0.067828
Cr	      4.21703      4.16936      8.60953        -0.014993     -0.031671      0.197908
Co	      6.27711      4.27995      6.54514        -0.044436     -0.018025     -0.030870
Co	      4.22408      8.27219      4.37578        -0.032317      0.015836      0.081600
O	      2.12276      2.08153      2.05563        -0.045259      0.043201      0.007889
O	      4.27328      4.17903      2.10804        -0.039976      0.007277     -0.049944
O	      4.24938      2.21982      4.32060         0.067247      0.037602     -0.013989
O	      6.17236      4.15028      4.17665        -0.054071     -0.042643      0.017950
O	      6.31941      2.32190      6.32053         0.000847      0.121761      0.024805
O	      8.27588      4.25283      6.65897        -0.108749      0.013459      0.005884
O	      2.21903      4.10153      4.19783         0.063231      0.062956     -0.010380
O	      4.15573      6.12556      4.38813        -0.030349      0.004314      0.035658
O	      4.33162      4.17746      6.64063         0.146009      0.002105     -0.037639
O	      6.29408      6.11632      6.55688         0.013029     -0.127314      0.020647
O	      6.32203      4.17497      8.78731         0.011234      0.032663     -0.000716
O	      8.40244      6.25181      8.78349        -0.005913     -0.024192      0.007200
O	      2.05785      6.29827      6.56902         0.015575     -0.034055     -0.062453
O	      4.21933      8.32801      6.36318        -0.061784     -0.012822     -0.036494
O	      3.94092      6.17891      8.67473         0.028393      0.046045     -0.041101
O	      6.36322      8.41286      8.72775         0.027456     -0.056348     -0.077288
O	      6.25403      6.32992     10.84739         0.030300      0.005617      0.032709
O	      8.30588      8.33186     10.76260        -0.065568     -0.016124     -0.051090
