# total energy = -234.77688988 eV
 
CRYSTAL
PRIMVEC
0.000799 6.401195 6.296474 
6.279980 0.010742 6.286728 
4.207648 4.282196 -0.014295 
PRIMCOORD
36 1
Li	      6.26509      6.45969     12.48379        -0.029875      0.008481      0.022907
Li	      6.23867      2.08399      4.29045         0.000003     -0.005573      0.111885
Li	      4.12208      6.41613      2.18719        -0.078172     -0.039965      0.010586
Li	      4.17102      4.37418      4.25655         0.005479      0.042877     -0.074630
Li	      4.20680      2.23557      6.27079         0.027637     -0.126235      0.068149
Li	     10.47495      8.55136     10.46534        -0.033779     -0.031534      0.026728
Li	      2.22829      6.34443      4.11595         0.064404     -0.001790     -0.029200
Li	      4.16769      6.30300      6.21349         0.021612      0.037299     -0.072207
Li	      4.21882      4.27557      8.27678         0.003719     -0.030714     -0.043007
Sc	      4.26179      8.56202      8.41265        -0.027088      0.111825     -0.202488
Sc	      6.16812      6.44420      4.29109        -0.159900      0.078265      0.155514
Mn	      2.13354      4.32380      2.18079        -0.008938     -0.197483     -0.146801
V	      8.37166      8.48805     12.39345         0.090284      0.080655      0.256852
Cr	      6.32179     10.67457      8.40282        -0.031024      0.212660     -0.085647
Cr	      6.23784      4.23805      6.31808         0.085543     -0.275893      0.049766
Cr	      6.28644      6.36131      8.39062         0.124059     -0.079296     -0.146025
Cu	      4.25453      0.06162      4.20607        -0.012521     -0.043106      0.021817
Cu	      2.31508      4.32929      6.19528        -0.141501     -0.006935     -0.234437
O	      6.18466      6.45404     10.34820        -0.018659      0.011446      0.013634
O	      2.12324      2.13512      2.12376         0.124468     -0.116854      0.053411
O	      4.31739      4.23304      2.11784         0.189844     -0.084969      0.074766
O	      4.19406      2.08004      4.17123         0.017394     -0.103704     -0.027057
O	      6.43267      4.28204      4.16985        -0.012165     -0.017903     -0.050461
O	      6.48148      2.23621      6.31978        -0.018634     -0.003561     -0.027912
O	      8.28404      4.11236      6.49230         0.062186      0.040935     -0.039495
O	      2.10635      4.26241      4.20679         0.010134      0.026312      0.098569
O	      4.21828      6.43221      4.19493         0.124475      0.001012      0.034464
O	      4.26356      4.17537      6.25259         0.009328      0.198156     -0.044041
O	      6.27408      6.26590      6.34091         0.050447     -0.132121      0.086636
O	      6.22638      4.37859      8.31025        -0.096104      0.052757      0.021554
O	      8.27735      6.23819      8.37976        -0.099712      0.213583      0.062244
O	      2.04668      6.65903      6.39480        -0.045593      0.048123      0.077075
O	      3.93028      8.63784      6.29997        -0.070926      0.077006      0.027599
O	      4.17290      6.45821      8.25197        -0.021205      0.025991      0.064487
O	      6.34882      8.60576      8.15592        -0.046365     -0.052103      0.177985
O	      8.36225      8.58131     10.66194        -0.058855      0.082357     -0.293220
