# total energy = -139.96769857 eV
 
CRYSTAL
PRIMVEC
-4.172141 -4.134248 -0.015777 
2.129342 -0.019512 6.224879 
-6.252143 2.061075 -0.051556 
PRIMCOORD
24 1
Li	     -5.11487     -1.06099      5.14632         0.014534      0.008394     -0.002907
Li	     -3.16091     -1.04263      3.08236        -0.011049     -0.006071      0.002088
Li	     -3.09228      1.03340      5.14585        -0.005078      0.006533      0.007319
Li	     -1.11228     -1.08119      1.09302         0.001001      0.013819     -0.005061
Li	     -5.18297     -3.13652      3.08172         0.001315     -0.004910     -0.007230
Li	     -3.04025     -3.06310      0.96205         0.000689     -0.015005      0.005905
Mn	     -3.08061     -3.10637      5.16179         0.001255     -0.003092      0.000272
Mn	     -3.11601      1.02572      1.00964        -0.000550      0.001408      0.004703
Mn	     -5.19402      1.00434      3.06689         0.002313     -0.000036     -0.002032
Ni	     -1.01464     -1.07272      5.17093         0.031552      0.008601     -0.011736
Ni	     -5.20218     -1.04145      1.00198        -0.000248     -0.002172     -0.002217
Ni	     -7.26009     -1.02925      3.05777        -0.035542     -0.009189      0.011230
O	     -7.43332     -1.06202      5.12501        -0.062844     -0.119616      0.106672
O	     -5.21266     -0.90356      3.07376         0.114773      0.044018      0.107529
O	     -5.16800      1.10820      5.00591         0.101697      0.017719     -0.019182
O	     -3.13460     -0.91231      1.00147         0.108174      0.034617      0.110742
O	     -3.19576      1.02918      2.95841        -0.025847     -0.107902     -0.013268
O	     -5.33555     -3.11758      0.88978        -0.035033     -0.102653     -0.014577
O	     -7.26977     -1.17047      1.00213        -0.105747     -0.036784     -0.103954
O	     -3.06248     -1.19858      5.15531        -0.111364     -0.045384     -0.110167
O	     -5.06852      1.03472      1.11391         0.035617      0.105208      0.015159
O	     -0.84113     -1.03975      3.10353         0.061512      0.116475     -0.105458
O	     -5.07876     -3.13154      5.27012         0.019989      0.112905      0.012191
O	     -3.10671     -3.20994      3.22284        -0.101120     -0.016884      0.013981
