# total energy = -239.05827875 eV
 
CRYSTAL
PRIMVEC
-0.019080 6.247634 6.495815 
6.332357 -0.011804 6.489332 
4.215944 4.154335 -0.002197 
PRIMCOORD
36 1
Li	      6.33776      8.25683     10.81827        -0.026461      0.024963      0.004482
Li	     10.39346      6.29223      8.80299         0.029958      0.038192      0.009542
Li	      8.30611      6.33206      6.66335        -0.001700     -0.016541      0.080247
Li	      0.03308      4.14476      4.26586         0.009957      0.028120     -0.003143
Li	      8.47735      6.17654     10.69794         0.032525     -0.027409      0.028292
Li	      2.25275      4.08741      6.45504        -0.010032      0.012026     -0.011733
Li	      4.27239      6.15337      6.37250        -0.003617      0.049562     -0.041773
Li	      8.35137      8.20070      8.59651        -0.028442      0.027726     -0.035897
Li	      6.48834      6.20833      8.62659        -0.022665      0.016305      0.033094
Sc	      4.30035      8.26726      8.57941        -0.012680     -0.032672     -0.100083
Sc	      6.19659      4.17506      6.60067        -0.032934     -0.044895      0.055016
Mn	      2.10812      6.22011      8.63282        -0.042387     -0.000971     -0.076177
Mn	      4.26138      6.28083     10.83894         0.026704      0.162127     -0.003270
V	      8.39090      8.24704     12.81446        -0.060805     -0.019762      0.006288
Cr	      8.40033      4.24622      8.69896         0.029750     -0.060227     -0.005330
Cr	      6.27720      6.26715      4.37549        -0.028786      0.046496     -0.041385
Co	      6.28555      0.02180      6.47362         0.099435      0.029159      0.080788
Co	      4.17763      4.20044      4.43225        -0.015000     -0.006613      0.154499
O	      2.15456      2.00388      2.12772        -0.010198      0.027576      0.058926
O	      4.27275      4.14419      2.02688        -0.026420     -0.004151     -0.030111
O	      4.15750      2.05857      4.24090        -0.009029     -0.082359     -0.032221
O	      6.45675      4.21556      4.39432         0.010983     -0.042400     -0.056837
O	      6.47986      1.99208      6.50236        -0.111824     -0.085645     -0.001880
O	      8.49879      4.06064      6.63395         0.077185      0.021545     -0.002008
O	      2.12809      4.09173      4.19921         0.016540     -0.007977     -0.016314
O	      4.31883      6.17219      4.31499         0.014289      0.012343      0.022113
O	      4.23025      4.12470      6.47810         0.038978      0.010590     -0.123621
O	      6.30720      6.21700      6.35410         0.015777      0.014233      0.018271
O	      6.43866      4.17923      8.61752         0.009539      0.012228      0.041329
O	      8.42147      6.15752      8.69233         0.029035      0.031192      0.013411
O	      1.87897      6.35673      6.44015        -0.030165      0.001212      0.011802
O	      4.02086      8.45345      6.51192         0.146972      0.031893      0.063412
O	      4.07366      6.23941      8.65399        -0.027181     -0.059316      0.023453
O	      6.30869      8.45842      8.66087        -0.003166     -0.028501     -0.011993
O	      6.15037      6.28607     11.04605        -0.035914     -0.016959     -0.013568
O	      8.43668      8.42796     11.02348        -0.048219     -0.061092     -0.097624
