# total energy = -234.04998412 eV
 
CRYSTAL
PRIMVEC
0.012606 6.306739 6.333367 
6.365489 0.018599 6.327315 
4.247238 4.204003 0.008940 
PRIMCOORD
36 1
Li	      4.29315     10.45670      6.37689        -0.058594      0.005519     -0.046105
Li	      4.17746      2.18003      2.10475        -0.041192     -0.064850      0.040873
Li	      6.45402      8.40629     10.52142         0.002808      0.003379      0.001336
Li	      4.21706      6.36862      2.25639         0.014517      0.033990      0.009246
Li	      2.04809      2.23477      4.18676         0.024524     -0.045839      0.008031
Li	      4.02934      4.36502      4.16175         0.025580     -0.035815     -0.011659
Li	      0.11973      4.10723      4.16498        -0.032494      0.033577      0.028911
Li	      2.24807      6.16409      4.14281        -0.037508      0.034552      0.017557
Li	      8.51238      8.32264      8.57618        -0.014092      0.062105      0.090176
Sc	      6.13738      4.16996      2.21537         0.081940     -0.010923      0.030848
Sc	      4.35629      2.14577      6.40660         0.063186     -0.029980     -0.140693
Mn	      8.49205      8.42403     12.63082         0.020697     -0.045055      0.025326
Mn	      4.23565      6.29818      6.19995        -0.006754      0.012250      0.064563
V	      4.39054      6.36917     10.40219        -0.075421      0.003741      0.118256
Cr	      6.40693      4.25769      6.29587        -0.009339     -0.003263     -0.043844
Cr	      6.30780      8.42194      6.31164        -0.000126      0.000726      0.010458
Cu	      2.15719      4.17956      2.24131         0.056842     -0.017713     -0.026602
Ni	      6.45367      6.33903      8.47481        -0.081409      0.057485      0.050792
O	      2.11846      2.10257      1.89777        -0.046490     -0.023542      0.014155
O	      4.16091      4.18571      2.15824         0.024427      0.007504     -0.045982
O	      4.24571      1.86633      4.24717         0.033274      0.074970     -0.028320
O	      6.52087      4.23262      4.24713        -0.008311      0.013103      0.017486
O	      6.39943      2.26555      6.29171        -0.019629     -0.032219     -0.031923
O	      8.42938      4.24076      6.12709         0.009745      0.036902     -0.055132
O	      2.11824      4.19319      4.38732        -0.027570      0.026550      0.018833
O	      4.25795      6.31274      4.35016        -0.007430     -0.018955     -0.017250
O	      4.30069      4.28006      6.32213         0.003411     -0.025098     -0.010517
O	      6.45180      6.33479      6.39313        -0.010089     -0.008032     -0.113174
O	      6.52111      4.29498      8.28823        -0.039864     -0.109798      0.065132
O	      8.50794      6.29312      8.44482         0.082839      0.047500      0.015911
O	      2.06328      6.25315      6.39954         0.015295     -0.040554      0.002244
O	      4.27780      8.23684      6.34256        -0.037354      0.024749      0.022457
O	      4.22500      6.24455      8.57219        -0.047724      0.017598     -0.146269
O	      6.35857      8.41020      8.36674         0.012817      0.071567      0.035729
O	      6.16909      6.32167     10.52790         0.126900     -0.007086      0.113823
O	      8.49819      8.62017     10.70212         0.002589     -0.049045     -0.084674
