# total energy = -234.00710670 eV
 
CRYSTAL
PRIMVEC
-0.020020 6.377957 6.238664 
6.387750 0.009178 6.211297 
4.260976 4.235518 0.003072 
PRIMCOORD
36 1
Li	      4.22902      0.17798      4.07239         0.005015     -0.040799      0.017331
Li	      6.22151      2.17101      4.13125         0.060712     -0.023556      0.014461
Li	      4.23774      6.38781      2.20656        -0.021603     -0.000603      0.018397
Li	      2.11729      4.24261      2.22445        -0.011325     -0.006597     -0.022629
Li	      2.26163      2.14980      4.10139        -0.009834     -0.001595      0.021620
Li	      4.22894      4.12892      4.07595         0.000663      0.093687      0.020117
Li	      4.18005      2.19532      6.13714        -0.009150      0.027620     -0.013838
Li	      6.43507      4.21760     10.22530        -0.005818     -0.022118      0.020209
Li	      6.43700      6.33318      8.31511         0.027891      0.011909      0.001222
Sc	      6.44438      4.24028      6.16041        -0.066362      0.065361      0.182483
Sc	      4.33063      6.43913      6.15254         0.056287     -0.026990     -0.010093
Mn	      6.39205      4.21311      2.18249        -0.003355      0.007941      0.017221
Mn	      8.54036      8.45999      8.36747         0.001913      0.013414      0.056623
V	      6.31628      0.08345      6.17454        -0.128457      0.091330     -0.061688
Cr	      8.50792      2.14606      6.19940        -0.129387      0.099486     -0.118093
Cr	      2.12695      6.31605      4.11761        -0.087891     -0.119215     -0.089113
Cu	      4.21411      2.15153      2.18604         0.029458     -0.027714     -0.098159
Cu	      2.21200      4.15882      6.13174         0.000419     -0.065555      0.033089
O	      4.25658      2.12603      4.05825         0.047911      0.028774      0.144939
O	      2.15533      1.95141      1.97736        -0.084657     -0.010702      0.020046
O	      4.43466      4.25694      1.87592         0.064839      0.050956      0.096802
O	      6.36156      4.22266      4.20349         0.031766      0.006407     -0.092435
O	      6.48254      2.06586      6.21032         0.065540     -0.019260      0.014254
O	      8.60731      4.17678      6.29920         0.024950     -0.132433     -0.041909
O	      2.11741      4.33037      4.20823        -0.065242      0.005104     -0.158087
O	      4.09970      6.34743      4.19211         0.087073      0.004324     -0.017848
O	      4.32344      4.30386      6.40080         0.165694     -0.065503      0.045529
O	      6.33763      6.34449      6.23507         0.078013     -0.155474     -0.014616
O	      6.19734      4.26571      8.29808         0.061013      0.062962     -0.017412
O	      8.46273      6.53369      8.36883        -0.052044     -0.148133     -0.021181
O	      2.05803      6.49420      6.14959        -0.036152      0.151581      0.069476
O	      4.12336      8.56688      6.36438        -0.110788      0.078604     -0.068092
O	      4.10788      6.21450      8.31804        -0.006918     -0.005716      0.074249
O	      6.49681      8.60235      8.17697         0.037268     -0.014102      0.040292
O	      6.44339      6.33855     10.60820        -0.005891     -0.024846     -0.093728
O	      8.48669      8.36624     10.32740        -0.011551      0.111452      0.030558
