# total energy = -239.93253845 eV
 
CRYSTAL
PRIMVEC
0.071376 6.392580 6.240589 
6.344900 0.074495 6.237167 
4.266387 4.295826 0.013482 
PRIMCOORD
36 1
Li	      6.39172      6.49587     12.31341         0.023275     -0.005270      0.068431
Li	      4.36494      0.15358      4.25298         0.066517      0.035376     -0.003496
Li	      6.27598      2.08389      4.29969        -0.014781      0.016232      0.044783
Li	      6.43721      6.38078      4.32939         0.005016     -0.052219     -0.025363
Li	      4.30204      4.26781      4.27937        -0.000875     -0.027653      0.051647
Li	      4.17230      2.15028      6.07229        -0.065048     -0.030598      0.080409
Li	      6.41586      4.44714     10.40577         0.012198      0.042780     -0.044081
Li	      4.37998      6.35265      6.14861        -0.001994     -0.043313     -0.070981
Li	      6.43460      6.40925      8.37767        -0.000024      0.012492     -0.037453
Sc	      6.34831      4.33147      2.28727         0.007482     -0.027828      0.025768
Sc	      4.31919      2.10870      2.25019         0.063574     -0.076532      0.092513
Mn	     10.60666      6.51787      8.35652         0.009904     -0.000736      0.013836
Mn	      6.46255      8.38139      6.13332         0.019251      0.015645      0.008200
V	      8.62437      8.62340     12.35895        -0.086399     -0.098754     -0.198137
Cr	      8.48635      4.38971      8.31467         0.004595     -0.043286     -0.001001
Cr	      8.44852      6.47423     10.40374         0.023962      0.167596      0.158724
Fe	      4.31684      4.41052      8.29851        -0.028035     -0.083236      0.196103
Co	      6.38740      4.37694      6.19959        -0.029704      0.036033      0.001876
O	      2.15272      2.21469      2.01533        -0.011525     -0.007060     -0.010787
O	      4.20133      4.28789      2.03991        -0.000723     -0.002339     -0.006963
O	      4.26956      2.18569      4.15073        -0.039527     -0.001426     -0.107712
O	      6.35103      4.34430      4.25171        -0.013458      0.011752      0.014647
O	      6.56092      2.34586      6.36056         0.020279      0.009389     -0.014961
O	      8.37685      4.26406      6.29229        -0.011928      0.030256     -0.030287
O	      2.13245      4.38087      4.08068         0.000006      0.033456     -0.118336
O	      4.17378      6.45146      3.98400         0.004878     -0.023171     -0.006241
O	      4.40493      4.29381      6.36053         0.020961      0.023832     -0.130116
O	      6.36674      6.33508      6.24758         0.015190     -0.121754      0.037296
O	      6.40646      4.32681      8.19277         0.071511      0.006994      0.000969
O	      8.54319      6.44429      8.35604         0.008910     -0.069669     -0.013805
O	      2.15399      6.56702      6.20381         0.016841     -0.063726      0.137971
O	      4.10463      8.56636      6.26583        -0.035969      0.018758     -0.043515
O	      4.22579      6.38852      8.37171        -0.021253      0.180164     -0.021239
O	      6.49089      8.66292      8.24793        -0.058685      0.032754      0.048972
O	      6.49886      6.47535     10.39419        -0.014972     -0.003675     -0.015455
O	      8.52913      8.52478     10.40891         0.040548      0.108737     -0.082214
