# total energy = -238.30921208 eV
 
CRYSTAL
PRIMVEC
0.036144 6.372147 6.495458 
6.253416 0.024656 6.507417 
4.185210 4.271678 0.000353 
PRIMCOORD
36 1
Li	      4.09357      4.22504      0.10007        -0.074494     -0.010149      0.073429
Li	      2.16380      2.16234      0.05504         0.043378     -0.039268      0.056866
Li	      6.29545     10.57241      8.68366         0.018783     -0.027374     -0.023790
Li	      4.15176      2.29748      2.19948         0.001353      0.098124     -0.008059
Li	      6.17007      2.23494      4.27704        -0.036362      0.002958     -0.074948
Li	      2.17305      4.17141      2.15289         0.024731      0.014653      0.024285
Li	      2.16061      2.13854      4.29169         0.019444      0.003359     -0.033315
Li	      4.22324      4.16967      4.23312        -0.014788     -0.010361     -0.109304
Li	      6.23528      8.59899      6.51909        -0.048032      0.075072      0.004361
Sc	      2.09668      6.34293      4.41996        -0.039933     -0.035782      0.087387
Sc	      6.22222      6.49024      8.68143        -0.109086      0.112908      0.049230
Mn	      4.23316      8.51350      4.36522         0.023324     -0.002913      0.061949
Mn	      4.19989      6.42635      6.46698        -0.012707     -0.018974      0.047397
V	      0.19460      1.97664      2.17190         0.173300     -0.139764     -0.001709
Cr	      4.18549      2.13287      6.45167        -0.012002     -0.040251      0.004445
Cr	      8.35017      8.55899      8.66640        -0.064731      0.056051      0.020513
Fe	      6.34803      4.20485      6.34608        -0.011088     -0.012228      0.090364
Cu	      4.14615      0.10374      4.34648         0.050332      0.012110     -0.028169
O	      1.94746      2.17861      2.15232        -0.100976     -0.066045      0.014695
O	      4.16452      4.41203      2.15236         0.065279      0.051919      0.017837
O	      4.16138      2.11193      4.50003         0.014767      0.081359      0.156639
O	      6.36798      4.23633      4.44618        -0.017316     -0.000218     -0.067434
O	      6.19804      2.19181      6.64812        -0.041086     -0.009992      0.095667
O	      8.26870      4.41600      6.63551         0.057024      0.043774      0.117240
O	      1.95392      4.30661      4.31892        -0.057749      0.035983     -0.031547
O	      4.17500      6.31022      4.21411        -0.039029     -0.031495     -0.078137
O	      4.27450      4.22267      6.61055         0.025236     -0.052521      0.082063
O	      6.22735      6.30167      6.55359         0.072506     -0.031937      0.060151
O	      6.20503      4.21349      8.74941        -0.063013      0.023378      0.027812
O	      8.40623      6.51690      8.63911        -0.012759      0.051676     -0.026574
O	      2.30239      6.39822      6.42947         0.000290     -0.006870     -0.124115
O	      4.20995      8.43227      6.34983         0.006933      0.011772     -0.176439
O	      4.19623      6.28704      8.56134        -0.006639     -0.034201     -0.112311
O	      6.34499      8.48915      8.65136         0.049575     -0.056489     -0.011919
O	      6.26136      6.44677     10.78634         0.084279      0.029025     -0.080183
O	      8.49767      8.55753     10.71836         0.031255     -0.077290     -0.104375
