# total energy = -233.83640268 eV
 
CRYSTAL
PRIMVEC
0.027727 6.222803 6.397752 
6.251526 -0.010140 6.436221 
4.164801 4.171437 -0.004613 
PRIMCOORD
36 1
Li	      4.12083      2.06995      2.16469        -0.023660     -0.026921      0.003859
Li	      6.23156      2.10130      4.35686        -0.013743     -0.018773      0.020574
Li	      2.10239      2.14009      4.26258        -0.018013      0.011653     -0.048112
Li	      4.18982      2.23838      6.43049        -0.032443      0.043684      0.008342
Li	      6.13402      4.20042      6.51532         0.010493      0.010090      0.085694
Li	      6.29290      4.20039     10.70327        -0.042192     -0.019766     -0.022945
Li	      8.29982      6.19601     10.59445         0.048477      0.005984     -0.013338
Li	      2.14549      4.07891      6.23418         0.006049     -0.031120      0.011459
Li	      8.41170      8.27933      8.70908         0.042697      0.017605     -0.014845
Sc	      8.35463      8.26212     12.74765         0.126816     -0.006849     -0.049217
Sc	      4.15652      0.14267      4.37651         0.015235     -0.001632      0.012575
Mn	     10.37722      6.25736      8.58587        -0.080472      0.063205      0.041371
Mn	      4.25126      6.19541      6.33841        -0.024009      0.052845     -0.083685
V	      6.28908     10.14027      8.56940        -0.070122      0.056296      0.038877
Cr	      2.11327      4.13932      2.14645         0.017987     -0.000324      0.028231
Cr	      6.28378      6.24140      8.57246        -0.012374      0.017305     -0.015170
Ni	      0.07279      6.15792      6.33267         0.024994     -0.079524     -0.040949
Ni	      4.16595      4.11735      4.29893        -0.073648     -0.051714     -0.157023
O	      1.99664      2.05755      2.09675         0.015318     -0.048507      0.011875
O	      4.22387      4.08154      2.04830         0.134084     -0.042784      0.063611
O	      4.15496      2.17900      4.33442         0.066718     -0.143928      0.012375
O	      6.18043      4.19075      4.08536         0.087348     -0.077322     -0.187144
O	      6.25696      2.01593      6.63248        -0.099237      0.074228     -0.041370
O	      8.38898      4.12317      6.49368        -0.104304      0.034684     -0.016038
O	      2.22413      4.12497      4.08306        -0.161045     -0.000782      0.124430
O	      4.14372      6.08831      4.09739         0.060304      0.149043      0.029248
O	      4.19625      4.29373      6.31939         0.003909      0.068921      0.192401
O	      6.15743      6.24004      6.58557         0.099834     -0.001202      0.026171
O	      6.37805      4.23812      8.60986        -0.028701      0.037902     -0.020469
O	      8.31809      6.15060      8.55375         0.048389      0.040522     -0.011842
O	      2.17378      6.18357      6.55348         0.159544     -0.026266      0.136519
O	      4.20057      8.19937      6.33397        -0.035828     -0.072624      0.002631
O	      4.13862      6.24802      8.63863        -0.075677     -0.022123     -0.029383
O	      6.29963      8.37574      8.55896        -0.016834     -0.024515      0.036092
O	      6.25660      6.27442     10.64383        -0.017260      0.039697     -0.069051
O	      8.31555      8.42310     10.76348        -0.038633     -0.026987     -0.065757
