# total energy = -139.95492322 eV
 
CRYSTAL
PRIMVEC
2.112027 -2.071466 4.167010 
0.001585 4.131167 4.160191 
-6.199266 -4.093443 2.039832 
PRIMCOORD
24 1
Li	     -3.01434     -1.00028      3.11261        -0.001342     -0.001668     -0.001412
Li	     -3.14066      1.04139      5.15233        -0.000452     -0.007975     -0.012873
Li	     -1.11095      1.02755      3.09880         0.002185      0.002833      0.002015
Li	     -0.98503     -1.01466      1.06209         0.000334      0.008667      0.010866
Li	     -5.10042     -3.06988      3.05009         0.012814      0.013656      0.002310
Li	     -5.22425     -0.99566      5.20225        -0.012395     -0.015533     -0.003163
Mn	      1.05823      1.04020      5.20819         0.011868     -0.007519     -0.000885
Mn	     -1.00641     -1.02220      5.18915         0.000655     -0.000757     -0.002231
Mn	     -3.07105     -3.08468      5.16963        -0.009449      0.006778      0.002663
Ni	      1.06319     -1.04841      3.10534         0.025823      0.030061      0.015045
Ni	     -1.00533      1.04318      7.26935        -0.001250      0.000481      0.000542
Ni	     -3.07578     -0.99638      7.27282        -0.026639     -0.031032     -0.013859
O	     -3.04721     -0.86341      9.33438         0.099384      0.030200      0.126946
O	     -3.21325     -3.07270      7.14762        -0.026086     -0.114773     -0.019145
O	     -1.09963     -2.97723      5.19770        -0.016519      0.006492      0.108907
O	     -1.03494     -1.00293      7.12281         0.117224     -0.128923     -0.033768
O	      1.06942      1.03929      7.11364         0.100881     -0.130719     -0.037108
O	      0.94290     -0.94359      5.18731        -0.026585      0.010026      0.108019
O	     -2.95564     -1.10100      5.19083         0.025364     -0.010123     -0.108028
O	     -3.08183     -3.08388      3.26404        -0.102601      0.130242      0.038200
O	     -0.91307      0.93275      5.18064         0.018330     -0.006869     -0.109317
O	     -0.97770     -1.04168      3.25524        -0.117216      0.130405      0.034342
O	     -4.99865     -3.06539      5.26992         0.024760      0.115417      0.018590
O	     -5.16324     -1.14347      7.24377        -0.099089     -0.029367     -0.126656
