# total energy = -240.77525550 eV
 
CRYSTAL
PRIMVEC
0.000343 6.548668 6.220789 
6.278732 0.003846 6.218872 
4.182392 4.362071 0.005016 
PRIMCOORD
36 1
Li	      6.19551      0.07338      6.18593         0.013664      0.012325      0.028985
Li	      8.38701      8.73581     12.39004         0.018834     -0.005765      0.029225
Li	      8.43483     10.88180     10.42481         0.036892     -0.038358      0.011410
Li	      6.40963      8.62332     10.46552         0.076377      0.003478      0.000411
Li	     10.45859      6.55656      8.30712         0.023736     -0.006508     -0.024475
Li	      2.15180      4.34309      2.04489         0.012069      0.039512     -0.023894
Li	      4.08984      4.46146      4.08827        -0.013530      0.036623     -0.018696
Li	      4.18678      8.67599      4.19739         0.029266      0.014133     -0.007159
Li	      4.16731      6.69138      6.17234         0.004648      0.035969     -0.010506
Sc	      6.32755      4.25894      6.08588         0.037681      0.007401     -0.052276
Sc	      6.25297      6.49303      8.37423         0.082263      0.005992      0.089336
Mn	      4.11742      2.24622      2.13339         0.052411      0.058470     -0.060655
Mn	      2.18679      6.61100      4.21316        -0.084818     -0.012904      0.037570
Mn	      2.07584      4.42279      6.18374        -0.093238      0.022444     -0.055202
V	      6.20394      4.41227      2.12915        -0.216022      0.013326     -0.011284
Cr	      4.20967      2.14223      6.12783         0.020433     -0.043981     -0.010798
Cr	      8.39526      8.71869      8.32368         0.047849     -0.056397      0.053517
Cu	      6.13460      6.58543      4.13600        -0.066570      0.016419     -0.002518
O	      2.04920      2.01670      2.14663        -0.031484     -0.029421     -0.180001
O	      4.27719      4.24514      2.10458         0.097288      0.008515      0.011204
O	      3.97018      2.17907      4.07609         0.150095     -0.033224      0.076099
O	      6.29086      4.15965      3.97121        -0.016720     -0.082747      0.053992
O	      6.18644      2.24829      6.18061        -0.003145      0.005183      0.001529
O	      8.33630      4.48635      6.19321        -0.008764      0.003998     -0.012857
O	      2.08012      4.64062      4.29178        -0.023022      0.030327      0.033149
O	      4.14179      6.57605      4.17656        -0.021880     -0.043758      0.021217
O	      4.10657      4.22719      6.24739         0.004448      0.003212     -0.003645
O	      6.31335      6.48656      6.15485         0.030504      0.017955      0.119574
O	      6.20219      4.45685      8.20404        -0.014642     -0.049211      0.007157
O	      8.34993      6.67882      8.16149         0.023431     -0.002448      0.003848
O	      2.17089      6.57558      6.48467        -0.014279     -0.045015     -0.061784
O	      4.30443      8.72259      6.42737         0.012540      0.008306      0.014111
O	      4.17104      6.46960      8.36290        -0.108446     -0.006334     -0.046104
O	      6.33663      8.72911      8.19623         0.027311      0.056827      0.026420
O	      6.46477      6.60947     10.35014        -0.051887     -0.021210     -0.011771
O	      8.44275      8.56464     10.29861        -0.033290      0.076867     -0.025128
