# total energy = -241.26739015 eV
 
CRYSTAL
PRIMVEC
-0.030201 6.447763 6.291512 
6.256400 -0.009074 6.270480 
4.165475 4.278494 -0.000763 
PRIMCOORD
36 1
Li	      4.09633      4.21963      0.06441        -0.039513     -0.010862      0.030805
Li	      2.11185      8.58805      6.30792        -0.003310     -0.063315     -0.028150
Li	      4.12422      2.20261      2.15875         0.025128     -0.019846     -0.031702
Li	      4.16577      0.08785      4.20707        -0.039293      0.073990     -0.014787
Li	      2.13751      4.20146      2.06908         0.004832      0.036855      0.010762
Li	      2.13959      2.19585      4.12022         0.030118      0.029824     -0.030123
Li	      2.09624      4.31784      6.26734         0.002050      0.048964      0.036522
Li	      4.18261      6.41404      6.26087         0.001838      0.025905     -0.008057
Li	      8.29137      8.58000      8.36829        -0.026189     -0.021456      0.003453
Sc	      2.17835      6.43809      8.26201         0.045066     -0.086353     -0.052506
Sc	      0.05892      2.12280      2.09903        -0.102779      0.017711     -0.032592
Mn	      8.27173      6.40628      6.24948         0.014054      0.037536      0.075741
Mn	      2.05293      6.40978      4.28161         0.041040      0.008349     -0.048055
Mn	      6.14083      6.47006      8.36535         0.038473     -0.014549     -0.023022
V	      4.13426      8.57706      4.31566        -0.020557     -0.090346     -0.236818
Cr	      6.22667      8.57747     10.46449         0.049451     -0.033092      0.015029
Cr	      6.23995      4.29248      6.28461        -0.016926      0.001905      0.047528
Ni	      4.14184      4.22603      4.16612        -0.079099      0.118987      0.027489
O	      2.06477      2.07805      2.06555         0.082998      0.014184     -0.003971
O	      4.21177      4.35295      2.12918         0.004719     -0.044945     -0.105434
O	      4.25607      2.18182      4.19233        -0.023586     -0.130964      0.001751
O	      6.26290      4.14434      4.24734         0.067458      0.024140     -0.003768
O	      6.21102      2.23041      6.23534         0.010949     -0.006528     -0.013144
O	      8.22946      4.48698      6.29070         0.032349     -0.008943     -0.015289
O	      1.96600      4.42711      4.19550        -0.041728     -0.006853     -0.008134
O	      4.22626      6.57227      4.17246         0.006538      0.035801      0.067750
O	      4.20709      4.09467      6.21281         0.028149     -0.050329      0.161973
O	      6.24071      6.31897      6.38729         0.005421     -0.010406     -0.001613
O	      6.19185      4.22767      8.40388         0.037687     -0.000136      0.022484
O	      8.19182      6.43235      8.49004         0.015864     -0.016274     -0.020931
O	      2.08318      6.38788      6.22751        -0.023281      0.034590      0.006793
O	      4.12182      8.64949      6.04642        -0.004873      0.027127      0.165307
O	      4.23526      6.44738      8.31156        -0.065114      0.010806      0.032843
O	      6.24818      8.62976      8.48942        -0.046398      0.044566     -0.030282
O	      6.12888      6.41219     10.36750         0.000173      0.028885      0.021576
O	      8.33017      8.39561     10.51391        -0.011705     -0.004929     -0.019426
