# total energy = -246.55387700 eV
 
CRYSTAL
PRIMVEC
0.005025 6.340667 6.420488 
6.380773 -0.001296 6.425647 
4.255857 4.233276 -0.002934 
PRIMCOORD
36 1
Li	      6.30068      4.14525      2.33980        -0.104448     -0.067167      0.005133
Li	      4.30404      2.12085      2.23564        -0.027213      0.003120      0.006435
Li	      6.36524      8.49352     10.52768         0.001799     -0.017336      0.022239
Li	      4.32058      6.32355      2.19304        -0.017906      0.045373      0.006528
Li	      6.39292      6.22874      4.17996         0.008900      0.013227     -0.037351
Li	      4.32682      4.29608      4.18511        -0.059787      0.052808     -0.026216
Li	      4.26465      8.46499      4.32103         0.021218     -0.025273      0.017111
Li	      4.35229      6.25573      6.47550        -0.045131      0.015781     -0.034125
Li	      8.44301      8.52994      8.59375         0.000236     -0.026466      0.001613
Sc	      2.19440      8.42488      6.48180         0.048134     -0.064887      0.044078
Sc	      4.26860      2.18223      6.28111        -0.037242      0.049017      0.017763
Mn	      8.44173     10.52552     10.59525         0.046776     -0.050078     -0.025527
Mn	      2.14258      4.18660      2.25125        -0.013659      0.033250      0.049473
Mn	      6.36178      8.44232      6.44059        -0.012105     -0.005788     -0.004262
Mn	      6.36000      6.36265      8.60265         0.029347      0.009255      0.025542
V	      2.22266      6.33919      4.25964        -0.070279      0.056510      0.028111
Cr	      0.01253      0.01465      0.02113         0.048032     -0.004124     -0.056383
Cr	      6.32928      4.24764      6.35044        -0.016777     -0.009482      0.030012
O	      2.08036      2.26951      2.12879        -0.027588     -0.004462     -0.016969
O	      4.09184      4.25783      2.01925         0.030492      0.015392     -0.004996
O	      4.25310      1.89591      4.29348        -0.005842     -0.006653     -0.012350
O	      6.31810      4.19396      4.35727         0.041715      0.000174      0.000205
O	      6.36447      2.12466      6.49091         0.015980      0.036870     -0.038247
O	      8.52918      4.23471      6.26994        -0.048321     -0.004630     -0.052932
O	      2.14390      4.39857      4.31929         0.017215     -0.053691     -0.042920
O	      3.98030      6.43547      4.26910         0.224407     -0.022925      0.025418
O	      4.34530      4.20159      6.41982         0.127280     -0.029389      0.006524
O	      6.41781      6.25314      6.36542        -0.000305     -0.078614     -0.053302
O	      6.52531      4.35724      8.42133         0.015622     -0.032696     -0.034674
O	      8.40430      6.23673      8.63663         0.024889      0.008267     -0.043975
O	      2.03808      6.38686      6.35700        -0.022624      0.082098      0.072413
O	      4.21508      8.59483      6.42414        -0.048066      0.043058      0.021145
O	      4.40873      6.29515      8.67943        -0.037166     -0.010427     -0.007626
O	      6.40985      8.28831      8.52787        -0.009709     -0.033619      0.075778
O	      6.59572      6.38192     10.82682        -0.103793     -0.013328      0.063679
O	      8.52191      8.50398     10.75145         0.005918      0.096836     -0.027344
