# total energy = -230.40829644 eV
 
CRYSTAL
PRIMVEC
-0.018754 6.422739 6.341864 
6.349256 0.046391 6.277858 
4.244485 4.250381 0.019490 
PRIMCOORD
36 1
Li	      8.39007      2.26896      6.24167         0.021001     -0.039605      0.067434
Li	      6.16916      2.38179      8.25157        -0.023288     -0.112825     -0.018061
Li	      8.39022      4.39934      8.41386         0.089700     -0.023022     -0.009160
Li	      6.32032      6.48840      4.39130         0.079689      0.019874     -0.136694
Li	      4.12066      4.29837      4.40262         0.004794     -0.143616     -0.206743
Li	      4.26623      2.19637      6.29537         0.020454      0.011309     -0.022230
Li	      6.25810      4.30988      6.29423         0.023155     -0.063766     -0.062600
Li	      2.22204      4.19148      6.17684        -0.022492      0.007010      0.005694
Li	      4.40338      4.12511      8.26358        -0.043675      0.040024      0.054575
Sc	      2.13148      6.40883      8.35662        -0.174024     -0.028155      0.237744
Sc	      6.43843      6.38323      8.24807        -0.018895      0.151141      0.523080
V	      4.10090      2.26344      2.05324         0.124200      0.493636      0.081462
Cr	      8.50900      4.26301      4.28041         0.123523      0.139369     -0.073756
Cr	      6.37740      2.18575      4.27014        -0.114157     -0.191776      0.104929
Cr	      2.12277      6.34763      4.27214        -0.257560      0.429527     -0.064156
Co	     10.56547      4.34700      6.31994        -0.232915      0.018585      0.369944
Cu	      0.04459      4.11689      4.05939        -0.121047      0.057670      0.117020
Cu	      4.35836      6.16639      6.21689         0.015748      0.386316      0.112332
O	      4.19236      4.30096      6.33539         0.023485     -0.176734      0.034231
O	      2.32982      2.11341      2.19330        -0.144812     -0.027081     -0.000378
O	      4.25852      4.12213      2.06675         0.184073     -0.458007      1.099129
O	      4.34455      2.07827      4.04767         0.012290     -0.077293      0.156237
O	      6.51480      4.16830      4.17898         0.033840      0.085732     -0.006278
O	      6.35355      2.01376      6.24187         0.016642      0.910670     -0.110170
O	      8.65600      4.29645      6.21520        -0.200732     -0.093353     -0.021988
O	      1.95055      4.39515      4.23331         0.145480     -0.246619      0.000379
O	      4.07157      6.33348      4.31475        -0.029234     -0.048656      0.012440
O	      6.40555      6.44168      6.31824        -0.044627     -0.041016     -0.218179
O	      6.35283      4.37157      8.38590        -0.027175     -0.159868     -0.050659
O	      8.43348      6.45756      8.56366         0.026601      0.011189     -0.092436
O	      1.92224      6.44896      6.32711         0.256607     -0.078464     -0.151841
O	      4.22539      8.64084      6.60875         0.049756     -0.619278     -0.049764
O	      4.22590      6.64802      8.48585         0.026235     -0.125276     -0.015858
O	      6.16918      8.59793      8.55712         0.089278     -0.004800     -0.054618
O	      6.33416      6.58125     10.65646         0.081164      0.108014     -1.630503
O	      8.44077      8.62495     10.53255         0.006921     -0.110855      0.019442
