# total energy = -231.61939865 eV
 
CRYSTAL
PRIMVEC
-0.025889 6.306515 6.225499 
6.353306 -0.037351 6.237414 
4.223942 4.200661 -0.013282 
PRIMCOORD
36 1
Li	      6.31177      6.29813     12.34488        -0.003322      0.005877      0.001319
Li	      4.22103      2.09691      2.14396        -0.011769      0.015822      0.046617
Li	      4.28358      6.35955     10.36081        -0.015532      0.035556     -0.096557
Li	      6.27796      6.27570      4.33384        -0.018471      0.046338     -0.020149
Li	      6.31371      4.25541      6.15395        -0.020917     -0.031221      0.023002
Li	      6.44622      4.26217     10.36258         0.183781      0.045983      0.000796
Li	      2.03263      6.22071      4.20916        -0.009350     -0.111788     -0.024899
Li	      6.37214      8.21082      6.12935        -0.011324     -0.043401     -0.016111
Li	      4.36211      6.25262      6.09441         0.064797     -0.025041      0.010498
Sc	      6.34713     10.46795      8.33986         0.078613     -0.043898      0.016150
Sc	      4.18713      6.33158      2.16246         0.019412      0.105844      0.014842
V	      2.27033      8.38422      6.09849         0.329980      0.030094     -0.051799
Cr	      6.29951      2.04166      4.20597         0.031445      0.034322     -0.083599
Cr	      8.38331      6.25353      6.19972        -0.052306      0.001526     -0.079453
Cr	      4.23475      4.20546      8.27966        -0.091710      0.081011      0.013700
Co	      2.13083      4.17082      2.10666        -0.113659     -0.016442      0.664986
Ni	      6.27673      6.26765      8.30770        -0.050622      0.024952      0.015840
Ni	      4.20679      4.20894      4.19265        -0.108456     -0.124122      0.159869
O	      2.09636      2.11422      1.88161        -0.007260     -0.066537     -0.048206
O	      4.23275      4.19526      2.06670        -0.162132     -0.008183     -0.079752
O	      4.30595      2.09994      4.23296        -0.033939     -0.191958      0.028521
O	      6.31041      4.10617      4.12974         0.058437      0.017584     -0.018380
O	      6.30236      2.05896      6.19817        -0.039874      0.003619      0.093473
O	      8.43468      4.06236      6.42008         0.028023      0.136417     -0.170371
O	      2.14911      4.18023      3.97703         0.007093     -0.026686     -0.563898
O	      4.23234      6.24458      4.12217        -0.012866      0.130033      0.047763
O	      4.17663      4.04898      6.32025         0.026145      0.025937      0.028490
O	      6.42370      6.27165      6.26868         0.045780     -0.040134     -0.112047
O	      6.26533      4.18386      8.35604         0.131380     -0.122060      0.032021
O	      8.43012      6.30638      8.24020         0.111922      0.017356      0.028916
O	      2.06331      6.60027      6.22203        -0.005896     -0.036142     -0.074392
O	      4.00117      8.45205      6.14802        -0.201220     -0.026532      0.006080
O	      4.18827      6.18753      8.26429        -0.137969     -0.025819     -0.000681
O	      6.41410      8.39325      8.35874         0.043323      0.095491      0.007461
O	      6.31919      6.38533     10.34060        -0.009945      0.022971      0.136568
O	      8.35379      8.44621     10.50145        -0.041593      0.063230      0.063385
