# total energy = -234.06906745 eV
 
CRYSTAL
PRIMVEC
0.048401 6.218717 6.306423 
6.353364 0.011367 6.343044 
4.239701 4.174079 0.003712 
PRIMCOORD
36 1
Li	      2.29629      6.20955      8.51097        -0.083259      0.037788      0.035199
Li	      4.22273      6.17961      2.21597         0.008964     -0.008552     -0.043409
Li	      2.19643      2.10476      4.18607        -0.019856     -0.032455      0.042270
Li	      4.16304      4.19511      4.16766        -0.003074      0.038195      0.036405
Li	      8.53863      6.20343     10.43991        -0.026494      0.050897     -0.050357
Li	      2.28090      4.08500      6.27874        -0.064760      0.035041     -0.089461
Li	      4.16332      6.24775      6.39218         0.036634     -0.036313     -0.025322
Li	      8.36983      8.35212      8.45848         0.005300     -0.044002      0.008710
Li	      6.32964      6.36031      8.47241         0.023954     -0.047384     -0.024212
Sc	      0.19853      6.17030      6.35206         0.046911     -0.078956     -0.056997
Sc	      6.24878      4.27449      6.36524        -0.065226      0.063757     -0.058392
V	      4.30070      8.14616      4.09791        -0.138109      0.024611      0.285539
Cr	      2.21443      8.27851      6.28663        -0.038946      0.013569     -0.047335
Cr	      2.14199      4.17830      2.14458         0.204708      0.090528     -0.193769
Cr	      8.43482      6.29532      6.38502         0.005303      0.011419     -0.017194
Co	      4.28561      6.22091     10.51164         0.009643     -0.041831      0.036551
Co	      6.36425      8.33004     10.46421         0.095643     -0.281938      0.036073
Cu	      4.25212      2.04628      2.18809         0.089684      0.153472     -0.087458
O	      2.20416      2.15788      1.95747        -0.046807     -0.119391      0.047886
O	      4.14279      4.10663      2.10272         0.104108      0.007465      0.073778
O	      4.25841      1.91698      4.40236        -0.050455      0.201497      0.073760
O	      6.53893      4.05573      4.26718        -0.078369      0.167295     -0.029003
O	      6.41198      2.08517      6.17395        -0.047803      0.030615      0.111156
O	      8.49068      4.16899      6.35241        -0.006114     -0.037935     -0.004300
O	      1.98873      4.19539      4.10303        -0.011649     -0.069185     -0.092527
O	      4.24792      6.39835      4.16135         0.031868     -0.176099      0.000401
O	      4.26447      4.09597      6.30743        -0.059235      0.049700      0.042340
O	      6.47430      6.24751      6.32627        -0.055341      0.101469      0.052033
O	      6.46692      4.14046      8.46826         0.038504      0.005897      0.095899
O	      8.54082      6.17217      8.34936        -0.024562      0.081982      0.061521
O	      2.16496      6.32478      6.28031         0.055673     -0.063188      0.002756
O	      4.20502      8.32274      6.09409        -0.022353     -0.082388     -0.110980
O	      4.28002      6.31662      8.63602         0.028354     -0.051021     -0.034041
O	      6.30369      8.35317      8.65187         0.012326      0.008402     -0.072537
O	      6.23301      6.23084     10.55956         0.057318      0.019391     -0.021416
O	      8.59779      8.43528     10.57070        -0.012481     -0.022349      0.016433
