# total energy = -233.91682545 eV
 
CRYSTAL
PRIMVEC
-0.009538 6.209354 6.429661 
6.207308 0.017522 6.401487 
4.154749 4.137701 -0.004392 
PRIMCOORD
36 1
Li	      6.13974      0.13805      6.24929         0.086374      0.064639     -0.001595
Li	      8.19954      2.14242      6.44774        -0.010801     -0.105760     -0.029561
Li	      2.05390      0.01626      2.11161        -0.024683     -0.005659     -0.106700
Li	      8.26465      4.15438      4.42022        -0.005109     -0.059568     -0.048569
Li	      6.24734      2.01816      4.38649         0.073346     -0.070207      0.022774
Li	      8.29473      4.13641      8.38145         0.006713     -0.014034      0.081243
Li	      6.23571      6.12680      4.26939        -0.002122      0.081027     -0.022236
Li	      8.23317      6.26759     10.73859        -0.029308      0.020715      0.058165
Li	      6.24470      6.22402      8.63027         0.044565      0.047631      0.063413
Sc	      4.06101      2.04475      2.22282        -0.005795     -0.041238     -0.086434
Sc	      6.25398      4.26533     10.67264         0.103274      0.047366      0.133866
V	      8.21840      8.31111      8.64498        -0.219519     -0.043188      0.209129
Cr	      0.05485      2.05213      2.11278         0.005453     -0.134632     -0.048384
Cr	      4.18250      4.15035      4.26820        -0.254220      0.044034      0.006858
Cr	      2.08623      4.15549      6.40581        -0.264116     -0.123568      0.075830
Co	      6.23187      4.13840      6.40034         0.168120      0.251104     -0.563581
Co	      4.14934      6.20756      6.39491        -0.100762      0.134690     -0.032340
Ni	      4.14701      1.99979      6.33289         0.026028      0.156681      0.029299
O	      2.05492      2.04143      2.12183        -0.016084     -0.003324      0.022096
O	      4.15774      4.15707      2.24494        -0.034129      0.067121      0.003155
O	      4.14458      2.13862      4.26106        -0.001283      0.005874     -0.043479
O	      6.14410      4.12492      4.49959         0.167342      0.063386     -0.307248
O	      6.18529      2.20246      6.50699        -0.080828     -1.213116      0.380308
O	      8.11316      4.18894      6.41425         0.068043     -0.121782     -0.039512
O	      2.13715      4.14085      4.40805         0.029198     -0.024069     -0.010638
O	      4.15541      6.16948      4.17393         0.068096     -0.047208     -0.002790
O	      4.16004      4.18069      6.37492        -0.098760     -0.002152     -0.011147
O	      6.07412      6.16848      6.41285        -0.071138      0.869908      0.128449
O	      6.14656      4.10584      8.49319         0.066479      0.011332      0.293342
O	      8.35125      6.42046      8.40967         0.062111      0.027661      0.034405
O	      2.28928      6.13761      6.40031         0.045923      0.028388     -0.010156
O	      4.22870      8.21160      6.43082         0.024590      0.038169     -0.045087
O	      4.13169      6.06957      8.50052         0.044227      0.035793     -0.057252
O	      6.25525      8.25723      8.43329         0.222379      0.047793     -0.104018
O	      6.22855      6.19859     10.72704        -0.084172     -0.036658     -0.008735
O	      8.29996      8.29996     10.49848        -0.009432      0.002854      0.037132
