# total energy = -228.99335699 eV
 
CRYSTAL
PRIMVEC
0.067629 6.359553 6.187620 
6.486579 0.023963 6.230288 
4.324968 4.269559 0.014575 
PRIMCOORD
36 1
Li	      6.58382      6.32879     12.32202         0.012293     -0.049870      0.032195
Li	      4.56393      6.32536     10.34385         0.020348     -0.007498      0.005356
Li	     10.65367      6.43726      8.27677        -0.002964      0.017262      0.008499
Li	      8.61239      4.51402      8.24587        -0.019303     -0.012157     -0.003302
Li	      8.69494      6.34178      6.34860        -0.004319     -0.020142     -0.070495
Li	      6.50706      4.44149     10.33405        -0.041444      0.040942     -0.025679
Li	      6.44288      8.57849      6.21214        -0.070525      0.007958     -0.023456
Li	      4.38560      6.38392      6.21964         0.027681      0.019770     -0.026054
Li	      6.70151      6.32946      8.34467         0.021882      0.016410     -0.012086
Sc	      2.25408      8.49116      6.16967         0.086593      0.035612      0.078915
Sc	      4.46353      8.39658      8.24049        -0.084605     -0.064102      0.024270
V	      4.21973      4.36383      4.22394         0.153727     -0.078661     -0.157845
Cr	      6.57630     10.60265      8.27376        -0.004141      0.174201      0.024045
Cr	      6.54919      8.45918     10.36848        -0.011379      0.035566     -0.019126
Cr	      6.58522      4.32319      6.30403         0.210701      0.312099     -0.321287
Cu	      2.20135      2.11202      4.13899        -0.070131      0.110858     -0.016429
Ni	      8.59059      6.40461     10.31395         0.145402     -0.042651      0.181100
Ni	      4.40978      4.21902      8.25755        -0.096488      0.092796     -0.058170
O	      2.24532      2.01617      2.15976         0.003426     -0.091892     -0.110051
O	      4.45678      4.21134      2.28559         0.052428     -0.036377     -0.009495
O	      4.44369      2.28274      4.16066         0.231274     -0.006777      0.019457
O	      6.36820      4.16881      4.15788        -0.029943     -0.243252      0.056157
O	      6.51375      2.33769      6.16569        -0.000454      0.033511      0.041142
O	      8.48332      4.25210      6.25858        -0.209139     -0.027189     -0.002788
O	      2.42675      4.24710      4.16749        -0.141662     -0.034392     -0.007013
O	      4.35091      6.14847      4.13383        -0.129673     -0.017249      0.012100
O	      4.47301      4.25212      6.05312         0.089453     -0.012615      0.100057
O	      6.45181      6.19069      6.05468        -0.024198     -0.231922      0.187326
O	      6.48913      4.30659      8.14729         0.058919     -0.011040      0.117511
O	      8.68896      6.46508      8.33045         0.037770     -0.063658     -0.143201
O	      2.16014      6.40561      6.26228         0.006552     -0.005601      0.023322
O	      4.31668      8.52994      6.21458        -0.024092     -0.001496     -0.001680
O	      4.25447      6.34421      8.29111        -0.050532      0.042655     -0.042200
O	      6.56481      8.56969      8.30688        -0.060207     -0.004398      0.021733
O	      6.55128      6.48460     10.36770        -0.071875      0.034143      0.014171
O	      8.60418      8.48139     10.34479        -0.011375      0.089154      0.103004
