# total energy = -93.40849166 eV
 
CRYSTAL
PRIMVEC
2.108736 -2.072291 4.179213 
0.009311 4.133577 4.169008 
-4.118507 -2.045193 2.053480 
PRIMCOORD
16 1
Li	     -1.02074      1.03612      3.11855        -0.000441      0.001090     -0.001102
Li	     -1.01594      3.10249      5.19882        -0.000228      0.002851      0.003516
Li	     -3.03003     -1.03679      3.06016         0.007596      0.009940     -0.009376
Li	     -3.12980      1.06454      5.22938        -0.006697     -0.007212      0.010431
Mn	      1.06195      1.04326      5.22496         0.010502     -0.011424      0.019997
Mn	     -0.99497     -1.04000      5.19284         0.013074     -0.004519     -0.007215
Ni	      1.06218     -1.05139      3.11851        -0.001554      0.018452      0.022618
Ni	     -0.99506      1.05464      7.29905         0.002212     -0.022525     -0.020334
O	     -0.97261     -2.95579      5.19266         0.089467      0.042162      0.098315
O	     -1.11777     -1.02012      7.17170        -0.038878     -0.117608     -0.023639
O	      1.07156      1.03620      7.13312         0.100302     -0.116528     -0.052301
O	      0.95450     -0.93331      5.21530        -0.043326      0.010023      0.090392
O	     -0.88678      0.93621      5.20273         0.035520     -0.005117     -0.095015
O	     -1.00397     -1.03344      3.28561        -0.104362      0.117682      0.047706
O	     -2.93310     -1.02228      5.30054         0.030768      0.121492      0.017087
O	     -3.07842      0.91356      7.27844        -0.093954     -0.038758     -0.101078
