# total energy = -228.34052914 eV
 
CRYSTAL
PRIMVEC
-0.026122 6.400317 6.202258 
6.392511 -0.016552 6.192671 
4.248298 4.247278 0.002100 
PRIMCOORD
36 1
Li	      8.36371      2.27560      6.10591         0.009018     -0.056948     -0.049452
Li	      8.38586      4.32618      4.24761         0.027407      0.054813     -0.005431
Li	      6.36736      2.16723      4.27972        -0.067933      0.038985     -0.047722
Li	      8.50494      4.14952      8.16316         0.005226     -0.020208      0.002887
Li	      4.29008      4.22167      4.14227         0.032428     -0.060111      0.017944
Li	      4.25557      2.05311      6.11490         0.015915     -0.012653      0.044222
Li	      6.57878      4.11403      6.13018        -0.005569     -0.023979      0.055928
Li	      4.23480      8.44663      4.10522        -0.023965      0.040616     -0.015454
Li	      4.28454      6.40338      6.10121        -0.023408      0.018810      0.018136
Sc	     10.48870      4.28190      6.14168        -0.049856     -0.059340     -0.140058
Sc	      2.14014      0.05122      2.12058         0.072249     -0.048288      0.048351
V	      4.31475      4.27597      8.26745        -0.074465     -0.033094      0.204016
Cr	      2.16994      6.38333      4.11988        -0.107115      0.021493     -0.137827
Cr	      2.08127      4.22559      6.12335        -0.135617      0.118056      0.043601
Cr	      6.36069      6.36758      8.26287        -0.023230     -0.011686      0.014951
Cu	      6.41541      2.12108      8.22784         0.009324     -0.003982     -0.053687
Cu	      6.41022      6.31760      4.18522         0.021759      0.012225      0.119486
Ni	      4.25418      2.13345      2.14899         0.069504     -0.057860     -0.044125
O	      4.19190      6.41612      3.99172        -0.031122      0.005716      0.024780
O	      2.19930      2.10883      2.18561        -0.050967      0.041815     -0.169396
O	      4.33021      4.18172      2.03867        -0.017537      0.076157      0.051253
O	      4.14791      2.12710      4.12270         0.078133      0.040744      0.102469
O	      6.35190      4.33027      4.15198        -0.038295     -0.211924     -0.025313
O	      6.40336      2.08082      6.27965        -0.003930     -0.017408     -0.010506
O	      8.54788      4.18432      6.19007         0.042410      0.014801      0.016826
O	      2.14099      4.30185      4.28071         0.009376      0.094034      0.052794
O	      4.00647      4.26766      6.41615         0.040146      0.040398     -0.092299
O	      6.32252      6.53166      6.20388        -0.023489      0.067819      0.028005
O	      6.22044      4.38766      8.19495         0.157467     -0.134422     -0.059044
O	      8.38913      6.47398      8.31139        -0.021964     -0.061159     -0.011212
O	      2.12895      6.28810      6.14746        -0.003760     -0.031358      0.016350
O	      4.44522      8.53025      6.28973         0.107356      0.001421     -0.048558
O	      4.31009      6.29197      8.31726        -0.143652      0.067231      0.023151
O	      6.38620      8.46006      8.21805         0.039093      0.086299     -0.070266
O	      6.51816      6.35702     10.24748         0.067901     -0.001946      0.142515
O	      8.46951      8.38315     10.15586         0.041163      0.004933     -0.047313
