# total energy = -227.19372046 eV
 
CRYSTAL
PRIMVEC
-0.070014 6.440888 6.051616 
6.536523 -0.064530 6.047971 
4.317989 4.250039 -0.003314 
PRIMCOORD
36 1
Li	      4.23138      4.21771      0.14584        -0.042522     -0.024113     -0.050872
Li	      2.15408      2.19593      0.17800         0.033389      0.038170     -0.090163
Li	      4.22411      2.27505      1.94721         0.089689     -0.040110     -0.041552
Li	      2.27500      4.18516      1.92519         0.006620      0.008435      0.079337
Li	      4.38224      4.19489      3.99991         0.098257      0.015294      0.192256
Li	      8.65548      6.21783      6.10957         0.011351      0.004110      0.037183
Li	      6.62337      4.23614      6.13679         0.004169     -0.001989      0.002555
Li	      6.38166      8.54373      6.03355        -0.043473     -0.012565     -0.018927
Li	      4.28412      6.46641      6.02826        -0.004260     -0.003817      0.009980
Sc	      8.64742      4.23187      4.14523        -0.004118     -0.059591     -0.153086
Sc	      6.45324      2.12579      4.17850         0.155629     -0.055503     -0.262350
V	      4.28661      4.24736      7.80616        -0.008836     -0.016977      0.113860
Cr	      4.31247      8.53158      4.10558        -0.030015      0.124507      0.090597
Cr	      2.08858      6.44643      4.10883        -0.184077      0.004384     -0.204678
Cr	      6.47632      6.36431      7.91950        -0.156327      0.034077      0.268729
Cu	      2.03021      0.11663      1.89892         0.041327     -0.101824     -0.102888
Cu	      4.33797      6.30555      1.97449         0.165327      0.003264      0.129419
Cu	      2.30665      2.12320      4.09088        -0.113423      0.209076      0.194079
O	      6.41792      6.38466      5.99285         0.174901     -0.050655     -0.315194
O	      2.19314      6.34052      6.04956         0.013590      0.003400     -0.035800
O	      2.26237      2.11832      2.18991        -0.194287      0.142829      0.039575
O	      4.37101      4.29992      2.06620        -0.135493      0.077183     -0.003539
O	      4.45428      2.02595      4.02760         0.039223      0.094145     -0.107083
O	      6.58009      4.14743      3.91065        -0.078719     -0.036371      0.101644
O	      6.55916      2.07175      6.12895         0.028990     -0.046139      0.108362
O	      8.65653      4.17590      6.06797         0.017002      0.029153      0.076951
O	      1.84512      4.42295      3.95511         0.014867      0.026132      0.035584
O	      4.10764      6.57079      3.93281        -0.018272     -0.160115     -0.009424
O	      4.33977      4.19430      6.09629         0.018244     -0.036706     -0.374513
O	      6.27491      4.31920      8.13952         0.208327     -0.075902      0.042572
O	      8.47964      6.52081      8.11721         0.125124     -0.274549      0.034206
O	      4.20908      8.55107      5.88381        -0.034254     -0.008562     -0.013594
O	      4.44130      6.17126      8.03592         0.012749      0.258121      0.015043
O	      6.66216      8.39072      8.05376        -0.221699     -0.055849      0.087196
O	      6.51305      6.34275     10.03359        -0.020098     -0.049817     -0.030579
O	      8.68033      8.44730     10.01506         0.031102      0.038875      0.155116
