# total energy = -235.58943627 eV
 
CRYSTAL
PRIMVEC
0.013211 6.402983 6.320392 
6.276911 0.004564 6.329210 
4.164842 4.254614 0.022817 
PRIMCOORD
36 1
Li	      8.28891      2.30979      6.37444        -0.044441      0.033395      0.039159
Li	      8.34613      4.27602      4.35217        -0.022455      0.036679     -0.019039
Li	      6.27887      2.21380      8.48508        -0.001835      0.006662     -0.016171
Li	      8.34448      4.22571      8.35332         0.026547      0.046108     -0.050618
Li	      2.09189      2.25204      4.12885        -0.024853      0.095680     -0.043506
Li	      4.11509      4.23342      4.23847         0.001155     -0.019115     -0.024956
Li	      8.36641      6.37083      6.35752         0.043313      0.001617      0.038284
Li	      0.06437      4.19815      4.19031         0.005975     -0.044287      0.011376
Li	      8.43841      8.40521      8.43915         0.009462     -0.084450      0.006823
Sc	      4.18660      6.36792      6.22885         0.018473      0.024107     -0.095753
Sc	      6.30100      6.32097      8.50484         0.086625     -0.156849     -0.044167
V	      6.28304      2.18598      4.33081         0.067359      0.174501      0.020511
Cr	      6.24263      4.29355      2.16687         0.033514     -0.004057      0.040213
Cr	      4.15700      2.15415      2.10871        -0.108379     -0.081711     -0.091481
Cr	      6.31877      4.27247      6.33714         0.007933     -0.100431     -0.195916
Fe	      2.14553      6.32516      4.13787         0.029028      0.029923      0.147817
Co	      2.14293      4.25353      6.32004        -0.032578     -0.037069     -0.161372
Cu	     10.30631      4.26283      6.37908         0.000740     -0.016910     -0.132568
O	      2.17785      2.00743      2.11304         0.034541     -0.048772     -0.033076
O	      4.24052      4.15993      2.02745        -0.036811      0.051313      0.093870
O	      4.40691      2.13520      4.09787        -0.044342     -0.010369      0.001916
O	      6.28211      4.16032      4.22410         0.003458      0.023953      0.002163
O	      6.24418      2.29817      6.23165         0.024511      0.120609      0.026522
O	      8.28587      4.27378      6.31933         0.028748      0.081933      0.085753
O	      2.09568      4.34382      4.42448         0.014724     -0.059695      0.135032
O	      4.08387      6.45937      4.22929         0.108626     -0.051657      0.117730
O	      4.16144      4.30258      6.33645        -0.024917      0.053942      0.005018
O	      6.27862      6.43121      6.36356        -0.019425      0.036887      0.069998
O	      6.25408      4.32024      8.32919         0.011647      0.116709      0.023898
O	      8.32201      6.35222      8.55709        -0.131722      0.013069     -0.111536
O	      2.06726      6.22070      6.39236        -0.019838     -0.060117      0.039819
O	      4.34930      8.46690      6.40237         0.107575     -0.165440      0.097920
O	      4.14861      6.50385      8.41748        -0.014135      0.013453      0.000032
O	      6.24021      8.57555      8.40544        -0.027209     -0.002102     -0.023851
O	      6.30212      6.48868     10.63891        -0.095455      0.002449     -0.006093
O	      8.15006      8.42035     10.53939        -0.015560     -0.019958      0.046249
