# total energy = -235.06170033 eV
 
CRYSTAL
PRIMVEC
0.018829 6.328741 6.222924 
6.439968 0.022886 6.217960 
4.300380 4.222805 0.008150 
PRIMCOORD
36 1
Li	      4.26854      2.11686      2.27280        -0.042803      0.021200     -0.031470
Li	      4.35233      0.21931      4.12681         0.046165     -0.024664      0.073489
Li	      6.25108      2.08586      4.15680        -0.018746     -0.027599      0.061902
Li	      0.08762      2.13473      2.15530         0.059060     -0.050772      0.011024
Li	      2.07751      4.17980      2.14332        -0.051903      0.018255     -0.008575
Li	      2.26265      2.30246      4.12551         0.046947     -0.027545      0.012744
Li	      4.13351      4.05417      4.18339        -0.037281      0.048374     -0.000132
Li	      0.14869      4.11946      4.12862         0.006957      0.017459     -0.002542
Li	      6.36841      8.40004      6.14251        -0.070218      0.042955      0.000435
Sc	      8.63525      8.53557     12.33656         0.030257      0.032608     -0.026139
Sc	      2.23731      6.17948      4.10607         0.010905     -0.094459      0.063676
V	      6.33472      4.25109      2.28632        -0.174858     -0.008050     -0.093586
Cr	      6.44773      4.24441      6.20873         0.016282     -0.007300     -0.056924
Cr	      4.33715      6.37453      6.16992         0.044916      0.009866     -0.075882
Cr	      8.60495      8.48918      8.33844        -0.006912      0.008622      0.012322
Fe	      6.42771      6.38950      8.37525        -0.078488      0.063734     -0.040421
Co	      6.44125      6.33928     12.37705         0.153697     -0.133877      0.015807
Ni	      4.31597      2.13146      6.14661         0.021161     -0.009301      0.072549
O	      2.18134      1.82326      2.05786         0.026868      0.008085      0.017963
O	      4.58200      4.16480      2.01366         0.000476      0.021491     -0.298306
O	      4.28527      2.12564      4.20426        -0.027722      0.002621     -0.204699
O	      6.45509      4.20481      4.03993         0.022956     -0.008836      0.030491
O	      6.46190      2.18900      6.26353         0.104881     -0.108800     -0.017907
O	      8.51824      4.25385      6.30429        -0.062055     -0.100278     -0.011882
O	      2.16106      4.23099      4.07643        -0.048741      0.015198     -0.023111
O	      4.27780      6.31288      4.20473        -0.006499      0.000552      0.018442
O	      4.44248      4.31084      6.29272        -0.005922      0.113654     -0.018886
O	      6.37008      6.28521      6.31804        -0.077146     -0.017242     -0.036746
O	      6.34807      4.33346      8.19551         0.023540     -0.020003      0.034534
O	      8.47249      6.46233      8.23881        -0.036243      0.038158      0.121865
O	      2.25799      6.35170      6.26587         0.047188     -0.048916     -0.005841
O	      4.26784      8.42142      6.23104         0.003536      0.176666      0.029398
O	      4.27689      6.28798      8.23605         0.026756      0.011925      0.052907
O	      6.58553      8.57989      8.27806         0.061894     -0.025457     -0.002140
O	      6.47743      6.35429     10.30261        -0.015742      0.033175      0.377244
O	      8.60194      8.41442     10.32611         0.006838      0.028503     -0.051603
