# total energy = -237.60246346 eV
 
CRYSTAL
PRIMVEC
0.066915 6.336708 6.239857 
6.385423 0.060187 6.246979 
4.266189 4.238570 0.031705 
PRIMCOORD
36 1
Li	      6.44635      4.19462      2.35902         0.011040      0.018915      0.006202
Li	      8.36569      4.29795      4.10842        -0.063511      0.095469      0.059571
Li	      6.34428      2.30813      4.12291        -0.051651     -0.033288      0.034741
Li	      0.14856      2.13931      2.16208         0.129172      0.014934      0.016980
Li	      2.13698      2.10338      4.08719         0.073398     -0.050847      0.057912
Li	      4.37657      4.20790      4.21021         0.036683     -0.022280      0.077575
Li	      4.29163      2.18010      6.12698        -0.035814      0.039370     -0.038721
Li	      0.08431      4.11292      4.06769         0.047596     -0.014757     -0.012922
Li	      8.46998      8.59151      8.42571        -0.072856     -0.004890     -0.014690
Sc	      8.59695      8.56248     12.44614        -0.099472     -0.058846     -0.128043
Sc	      2.29671      6.32235      4.05353        -0.016045     -0.015296     -0.029492
V	      6.34336      0.15127      6.19359         0.088187      0.083227     -0.203802
Cr	      6.34428      4.25716      6.20068         0.207999     -0.057181     -0.054948
Cr	      4.31151      6.34956      6.25541         0.010497      0.009009      0.004363
Cr	      6.40571      6.35126      8.38368         0.026979     -0.005820     -0.121471
Fe	      4.26512      2.14968      2.30811        -0.023881     -0.047171      0.129712
Co	      8.52801      4.28888      8.34559        -0.129179      0.025257      0.036684
Co	      2.23080      4.18647      6.19160         0.103222     -0.046591     -0.051634
O	      2.21695      2.27332      2.07667        -0.030842     -0.010594     -0.082896
O	      4.14045      4.20206      1.89643         0.074924      0.097571     -0.137376
O	      4.29030      2.16335      4.15135        -0.021857     -0.025232     -0.138233
O	      6.41140      4.25257      4.28349        -0.035925      0.032602      0.108168
O	      6.42964      2.11854      6.29099        -0.036822     -0.011888      0.013294
O	      8.55718      4.30633      6.35089         0.039440      0.057208      0.027603
O	      2.15962      4.25944      4.08833        -0.042731     -0.085088     -0.056580
O	      4.28304      6.34557      4.27022         0.001565      0.019336      0.027980
O	      4.35559      4.37624      6.31548        -0.131892     -0.080807      0.040615
O	      6.30333      6.28125      6.36264        -0.058025      0.032129      0.106954
O	      6.57199      4.33605      8.27411         0.084714     -0.088329      0.000009
O	      8.41518      6.24468      8.29469         0.023505      0.021377      0.028972
O	      2.13651      6.36529      6.25856        -0.081948     -0.006425      0.008622
O	      4.33229      8.50958      6.28479         0.063178      0.010587      0.010919
O	      4.37747      6.43606      8.27992        -0.063718     -0.055332     -0.029740
O	      6.37380      8.36083      8.28111         0.010044      0.070802      0.028129
O	      6.45524      6.37909     10.56659        -0.022841     -0.003558      0.218585
O	      8.60359      8.44192     10.43165        -0.013134      0.096427      0.056958
