# total energy = -232.86605269 eV
 
CRYSTAL
PRIMVEC
0.035676 6.368203 6.307851 
6.374410 0.012602 6.330977 
4.231851 4.243255 0.025615 
PRIMCOORD
36 1
Li	      2.25421      6.30921      8.38210         0.083957     -0.048895     -0.045766
Li	      4.28479      6.32881     10.45111        -0.010930     -0.029207     -0.002817
Li	      6.17534      6.43036      4.31740        -0.042270      0.097079      0.022151
Li	      4.24875      4.40676      4.32730        -0.035943      0.051996      0.002997
Li	      4.27799      8.31493      4.23029         0.029091     -0.089934      0.068900
Li	      2.28856      6.34800      4.23369         0.054500     -0.047766      0.017426
Li	      2.22232      4.28343      6.19713        -0.015213      0.037198     -0.060635
Li	      4.27631      6.24652      6.20115        -0.010169      0.002618     -0.001327
Li	      4.26028      4.36234      8.41034         0.004172      0.033945      0.005500
Sc	      8.53600      8.44913     12.57797         0.105064     -0.077092      0.031265
Sc	      4.21700      2.05832      2.21546        -0.145472      0.094272     -0.062165
V	      6.40049      2.23826      4.18868         0.046140      0.068435     -0.033927
Cr	      2.09928      4.26154      2.25249        -0.039086     -0.037681      0.274022
Cr	      4.23490      2.17886      6.30446        -0.031826      0.017936      0.069052
Cr	      6.38254      6.37185      8.46766         0.124098     -0.049873      0.043493
Fe	      0.11634      6.29830      6.21029        -0.082024     -0.084012      0.016046
Cu	      6.30136      4.34785      6.28873         0.103900      0.061063     -0.058099
Ni	      4.22761      6.36006      2.29149        -0.016371     -0.029480     -0.093153
O	      4.25104      6.36583      4.23501         0.001661     -0.009184      0.134971
O	      2.10079      2.21745      2.10564         0.092161      0.040085     -0.027378
O	      4.05530      4.26636      1.99974        -0.005002     -0.112921     -0.021135
O	      4.35894      2.12192      4.28185        -0.011778      0.003562      0.043051
O	      6.37786      4.03400      4.18957        -0.026770      0.017604     -0.020413
O	      6.31723      2.01713      6.27748        -0.055171     -0.071438      0.051544
O	      8.43410      4.29399      6.43251         0.054677      0.067237     -0.024658
O	      2.15328      4.25817      4.04882         0.010326     -0.018654     -0.063702
O	      4.37638      4.13472      6.35777        -0.074385     -0.064825      0.017975
O	      6.49472      6.41688      6.46009         0.032843     -0.001170      0.001986
O	      6.54432      4.31388      8.44990        -0.008079      0.101387     -0.033398
O	      8.46612      6.27318      8.38514        -0.129716      0.028392     -0.090182
O	      2.03491      6.39826      6.36672         0.099820      0.061199      0.011673
O	      4.20452      8.60123      6.35688        -0.063062     -0.057410      0.018430
O	      4.38870      6.42202      8.41419        -0.048421     -0.022163      0.006724
O	      6.36567      8.41111      8.54573         0.017219      0.014612     -0.054591
O	      6.37991      6.54595     10.55023        -0.035905      0.055383     -0.124784
O	      8.38607      8.52457     10.56243         0.027964     -0.002297     -0.019076
