# total energy = -233.85901822 eV
 
CRYSTAL
PRIMVEC
-0.036043 6.381533 6.288004 
6.360648 -0.024711 6.275957 
4.212944 4.219144 0.011209 
PRIMCOORD
36 1
Li	      8.38012      8.45402     12.33762        -0.067263     -0.077562     -0.040534
Li	      4.31784      8.36270      8.49107         0.047779     -0.056229      0.008262
Li	      8.45755      4.21588      4.22278         0.036399     -0.035543     -0.030976
Li	      6.32622      2.07619      4.21275         0.011505     -0.035095      0.003319
Li	      4.14354      4.18173      4.31096         0.006105      0.048239      0.003109
Li	      4.16449      8.41889      4.23366        -0.004075      0.012558     -0.030229
Li	      2.13005      6.38604      4.27799        -0.038243      0.004785      0.038636
Li	      2.10474      4.21503      6.22898        -0.010541      0.019481     -0.029106
Li	      6.22532      6.47535      8.31884        -0.027657      0.026911     -0.051183
Sc	      6.32259      4.17688      2.16369         0.095528     -0.039798     -0.081389
Sc	      8.39624      8.43710      8.50086        -0.050463      0.063849      0.019068
V	      4.15473     10.37896      6.15007         0.019511     -0.103021     -0.228819
Cr	      2.10485      4.24081      2.15689        -0.025336     -0.007095      0.018666
Cr	      2.17196      2.17036      4.22775        -0.106171      0.050160     -0.060773
Cr	      6.37742      4.21519      6.22553         0.074236     -0.053979      0.053799
Fe	      4.18563      6.34511      2.18716         0.036194      0.028877     -0.007931
Cu	      4.26084      2.13877      6.19116         0.064777      0.096945      0.076566
Cu	      4.19765      6.34381      6.21189        -0.054170      0.228217     -0.018101
O	      4.15161      2.12993      4.21548        -0.000062      0.026540     -0.043595
O	      2.01398      2.17426      2.19402         0.041286     -0.045325      0.053830
O	      4.13956      4.31903      1.97881         0.030368     -0.031428     -0.003411
O	      6.36993      4.31614      4.22756         0.015054      0.052300      0.028282
O	      6.26145      2.15583      6.34520         0.140167      0.127068      0.031796
O	      8.56244      4.09956      6.39288        -0.124588      0.087541      0.018377
O	      2.09763      4.17392      4.12642         0.050422     -0.049460      0.032050
O	      4.29005      6.35924      4.20305         0.098677     -0.012284     -0.056969
O	      4.39622      4.36186      6.27949         0.042282     -0.351966     -0.027952
O	      6.50133      6.23828      6.24321        -0.042262     -0.007276     -0.013235
O	      6.42469      4.15386      8.27722        -0.055437      0.036213     -0.049409
O	      8.51769      6.26113      8.36364        -0.015931      0.034490      0.024721
O	      1.74674      6.43257      6.32933        -0.044968      0.018063      0.063321
O	      4.17804      8.63125      6.29044        -0.031551     -0.027809      0.010678
O	      4.13536      6.35029      8.21734        -0.048762     -0.011978      0.150138
O	      6.34494      8.52520      8.36647         0.023476      0.044596     -0.000171
O	      6.25071      6.37498     10.69520        -0.038948     -0.034752      0.136064
O	      8.46986      8.45537     10.42259        -0.047337     -0.026235      0.003102
