# total energy = -238.92719657 eV
 
CRYSTAL
PRIMVEC
0.032057 6.370580 6.332180 
6.338586 0.058791 6.305962 
4.267237 4.271059 -0.002815 
PRIMCOORD
36 1
Li	      6.35898      6.48660     12.47914         0.009520      0.003436      0.007896
Li	      8.46515      8.56451     12.58092         0.022650      0.005678      0.014203
Li	      6.47470      8.45943     10.56138        -0.015206      0.015303     -0.025085
Li	      6.36963      2.37167      8.38110         0.039552     -0.038351      0.025214
Li	      8.29279      4.29534      8.43342        -0.000032     -0.006208     -0.023996
Li	      6.28903      4.39624     10.39433        -0.037584      0.003267     -0.037387
Li	      6.35551      8.53858      6.35864        -0.027295     -0.000688      0.030298
Li	      8.60345      8.49910      8.53375         0.010157      0.010387      0.023133
Li	      6.43976      6.32764      8.47836        -0.015699     -0.032362      0.011248
Sc	      2.15794      6.35862      8.35598         0.072175      0.052285     -0.029221
Sc	      4.31792      8.51869      8.38779        -0.057825     -0.063978     -0.076678
V	      4.16297      4.27601      4.21310         0.313887      0.033529     -0.167824
Cr	      8.60960     10.57477     10.55604         0.004159      0.061802      0.001135
Cr	      6.39941      4.25199      6.37803         0.120382     -0.023676      0.084648
Cr	      8.41024      6.49984     10.48804         0.036107      0.083115     -0.025876
Fe	      8.58861      6.38438      6.52363        -0.162410     -0.050293     -0.089557
Fe	      4.31631      6.49892      6.28271        -0.004630     -0.021290     -0.016626
Co	      2.07687      2.21132      4.18280        -0.033989      0.015861      0.002146
O	      2.16763      2.10644      2.16292        -0.004371     -0.033218      0.143055
O	      4.31746      4.23946      2.34016        -0.131284      0.035584      0.332898
O	      4.21600      2.18774      4.26821         0.098902      0.033436     -0.010517
O	      6.40592      4.32302      4.23022         0.001985      0.080047      0.020303
O	      6.23843      2.23142      6.35664         0.100127      0.059634     -0.015411
O	      8.43888      4.37685      6.22194        -0.038405      0.003506     -0.059766
O	      2.28330      4.35321      4.24045        -0.192303     -0.206007     -0.016239
O	      4.15684      6.26886      4.26835        -0.112519     -0.121735      0.016760
O	      4.34634      4.25051      6.15444        -0.063437      0.060988     -0.160054
O	      6.35113      6.32490      6.24918         0.096917     -0.011497     -0.105832
O	      6.36360      4.30665      8.30714        -0.042093      0.018677     -0.112715
O	      8.46362      6.44814      8.43869         0.026462     -0.025995      0.164414
O	      2.25376      6.39406      6.26245        -0.020111     -0.031446      0.008903
O	      4.31569      8.40070      6.34585         0.006653      0.045555      0.119302
O	      4.25431      6.41014      8.45095        -0.038766      0.046119      0.035240
O	      6.33448      8.62636      8.39058         0.017969      0.042433     -0.002976
O	      6.35996      6.41888     10.54692         0.007711     -0.012042     -0.035390
O	      8.50396      8.57932     10.54744         0.012643     -0.031855     -0.029645
