# total energy = -237.11421339 eV
 
CRYSTAL
PRIMVEC
0.026016 6.259872 6.416177 
6.333510 0.010651 6.432685 
4.234538 4.196397 -0.005205 
PRIMCOORD
36 1
Li	      2.09931      2.07370      0.04338        -0.004197     -0.039761      0.002379
Li	      2.05683      0.08913      2.17528        -0.045835      0.047557      0.058410
Li	      0.09940      2.14317      2.16276        -0.008238      0.042762     -0.010129
Li	      6.29473      6.28168      4.26415        -0.062943      0.006725      0.045281
Li	      4.17433      4.26404      4.33289        -0.017902     -0.022562      0.000893
Li	      6.31341      4.21772      6.46651        -0.039334     -0.009357     -0.022475
Li	      4.28512      8.29059      4.22716         0.045140     -0.050175     -0.009571
Li	      2.16700      4.13833      6.36870        -0.023337     -0.093827     -0.046394
Li	      4.29978      4.13288      8.52892         0.049725     -0.076067     -0.024954
Sc	      4.14143      2.09346      2.14013        -0.024214      0.063732     -0.020217
Sc	      6.37178      2.20680      4.26832        -0.017226      0.159557     -0.006745
V	      0.08642      6.25017      6.44020         0.215955      0.065927      0.241128
Cr	      8.48913     10.42484     10.73023        -0.184429      0.034492     -0.228483
Cr	      8.42585      4.19566      8.59493        -0.017565      0.023984      0.199496
Cr	      2.17686      6.25532      4.29109         0.266686     -0.028597     -0.114613
Fe	      4.24639      6.04090      6.36160         0.009299      0.187072      0.008829
Fe	      6.37348      6.22616      8.45365         0.042362      0.011027     -0.051699
Cu	      4.18215      2.18345      6.40908         0.001977      0.030998     -0.055954
O	      2.11024      2.18385      2.11769         0.090355      0.042454     -0.056693
O	      4.18733      4.18700      1.99508        -0.088284     -0.004302     -0.067726
O	      4.25780      2.00039      4.21456         0.021167     -0.070531     -0.020202
O	      6.49839      4.20020      4.29955         0.037158     -0.081820     -0.039194
O	      6.30988      1.90334      6.39395         0.175580     -0.058582      0.017254
O	      8.56104      4.33542      6.38201         0.054618      0.021664      0.016994
O	      2.15848      4.28783      4.13257        -0.035865      0.010268      0.018397
O	      4.15349      6.28310      4.44771        -0.064366      0.039760     -0.149484
O	      4.24067      4.14681      6.42050        -0.029226     -0.304692      0.082605
O	      6.25044      6.31158      6.48734        -0.151124     -0.028470     -0.016663
O	      6.44717      4.26805      8.53893         0.022103     -0.044718      0.004855
O	      8.39061      6.23949      8.69544         0.094069     -0.039773      0.071038
O	      2.12918      6.26407      6.34363        -0.152689      0.019691     -0.056285
O	      4.24538      8.57851      6.44888        -0.055270     -0.065793      0.008851
O	      4.29470      6.23215      8.57199        -0.037030      0.070769      0.087024
O	      6.29882      8.23930      8.63324        -0.012650      0.060296      0.036052
O	      6.37019      6.26695     10.79132        -0.026522      0.040821      0.064520
O	      8.46109      8.39274     10.73870        -0.027948      0.039473      0.033475
