# total energy = -139.97363355 eV
 
CRYSTAL
PRIMVEC
-4.152313 4.134673 -0.041201 
-4.155161 -4.137537 0.002512 
2.105992 -0.032014 6.226556 
PRIMCOORD
24 1
Li	     -3.08143     -1.02288      3.03372        -0.004105     -0.015521     -0.019645
Li	     -3.06499      1.03305      5.11931         0.007771     -0.001305     -0.003346
Li	     -1.03744     -1.04066      1.03747         0.002489      0.000945      0.002089
Li	     -1.05717      0.98643      3.14129        -0.001548      0.004430      0.008769
Li	     -5.19123     -1.09247      5.22873         0.005582      0.018213      0.019944
Li	     -3.11340     -3.10895      1.03977         0.000153     -0.000096      0.000802
Mn	     -3.10401     -3.13991      5.18228         0.003374     -0.006703     -0.004289
Mn	     -5.16735      1.02620      3.08102        -0.005505      0.012492      0.005400
Mn	     -5.18877     -1.04074      1.01862         0.000547     -0.002974     -0.001709
Ni	     -3.11125      1.02815      1.01672        -0.002790     -0.000398      0.000997
Ni	     -3.11342      3.07244      3.08244         0.011958      0.024878      0.016948
Ni	     -1.00319     -1.04840      5.17832        -0.009009     -0.025394     -0.017155
O	     -5.19227     -0.94571      2.96080         0.115892      0.005330     -0.027683
O	     -5.27836      1.00630      5.01155        -0.013275     -0.117295     -0.018688
O	     -3.25880     -1.02514      0.99252        -0.041358     -0.123268      0.128998
O	     -3.25029      1.02384      3.10547        -0.034496     -0.126587      0.094623
O	     -3.09887      3.22002      5.16580         0.119039      0.040785      0.097835
O	     -1.02857      1.14007      0.92320         0.107551      0.006779     -0.022058
O	     -3.07915     -1.16744      5.30277        -0.115966     -0.007286      0.024028
O	     -5.19383      0.91596      1.11122        -0.108069     -0.005339      0.022167
O	     -1.01775     -1.19575      3.09495        -0.118368     -0.040998     -0.102532
O	     -0.86565      0.99999      5.15501         0.028823      0.122543     -0.093972
O	     -2.96321      3.08107      1.04177         0.041161      0.122588     -0.125995
O	     -2.99247     -3.11976      3.25194         0.010148      0.114184      0.014472
