# total energy = -236.96304977 eV
 
CRYSTAL
PRIMVEC
0.034053 6.191526 6.333244 
6.306307 0.013391 6.353994 
4.215393 4.153131 -0.002355 
PRIMCOORD
36 1
Li	      2.15214      8.21631      6.38915         0.036422      0.005810      0.065776
Li	      6.35237     10.32462      8.43433         0.007805     -0.031930      0.006800
Li	      4.30513      8.24670      8.44439         0.119824      0.010096     -0.033751
Li	      6.37137      8.27503     10.45056         0.072297      0.047812     -0.130220
Li	      2.12061      2.06908      4.16955        -0.035384     -0.025950     -0.102123
Li	      8.41622      6.24225      6.36928        -0.036056      0.005497      0.052508
Li	      8.44077      6.23425     10.56714         0.025675     -0.036716     -0.019978
Li	      6.35706      8.28522      6.42057         0.035131     -0.034270      0.081855
Li	      8.30448      8.25277      8.49694        -0.076178      0.033593      0.071077
Sc	      2.17299      4.07004      2.11312         0.027373     -0.034171     -0.089342
Sc	      6.30036      4.07550      6.33332        -0.049392     -0.082955      0.057513
V	      4.15528      0.08039      4.17277        -0.043070      0.002147      0.033972
Cr	      4.21192      4.08838      4.21230        -0.019125     -0.044305     -0.014798
Cr	      4.16211      6.22811      6.38914        -0.088633      0.050760      0.026858
Cr	      6.37811      6.33745      8.44592         0.011827     -0.100763      0.057428
Fe	      0.22124      6.23441      6.33916        -0.159056     -0.092928     -0.043680
Fe	      4.23093      8.24834      4.26304         0.128901      0.019321     -0.128218
Ni	      4.22797      6.20563      2.11897        -0.100578      0.019378      0.060484
O	      2.03775      2.09433      2.11302         0.095053     -0.053651     -0.001519
O	      4.23398      4.14728      2.13073         0.034213     -0.149610      0.031849
O	      4.19099      1.96967      4.23940        -0.000625      0.154613     -0.004948
O	      6.32709      4.13017      4.27690        -0.033760      0.024636     -0.044209
O	      6.30186      2.00567      6.39154        -0.041783      0.112487     -0.031856
O	      8.43418      4.17976      6.26110        -0.000140      0.039174      0.010863
O	      2.16356      4.11710      4.18581         0.019895     -0.022784     -0.024950
O	      4.19932      6.19247      4.31856        -0.002827     -0.037029     -0.010606
O	      4.23247      4.21018      6.19095        -0.051690     -0.053377      0.048484
O	      6.18225      6.17409      6.46470         0.036313     -0.008233     -0.000982
O	      6.34651      4.17233      8.51807        -0.004721      0.132464      0.017370
O	      8.40726      6.22554      8.45891        -0.121635      0.003770      0.043826
O	      2.11394      6.21762      6.30715         0.266326     -0.012165     -0.028807
O	      4.23558      8.29122      6.21761         0.026029     -0.003073      0.124552
O	      4.32620      6.23920      8.47959        -0.059278      0.023484      0.015102
O	      6.35830      8.22683      8.46654        -0.014774      0.028857     -0.014758
O	      6.26606      6.17479     10.58067         0.057503      0.139918     -0.034759
O	      8.54374      8.54809     10.55191        -0.061884     -0.029907     -0.046813
