# total energy = -240.85328681 eV
 
CRYSTAL
PRIMVEC
0.044298 6.249933 6.364345 
6.391574 0.024862 6.383613 
4.278940 4.197341 -0.001268 
PRIMCOORD
36 1
Li	      4.34493     10.29411      6.35291         0.006410     -0.027116      0.013119
Li	      8.70109      8.38661     12.62596         0.024295      0.035696     -0.080927
Li	      6.34818      4.16874      2.10473        -0.046347     -0.002928     -0.014297
Li	      4.36879      8.39378      8.41516         0.038026      0.001124     -0.039897
Li	      8.53189      4.20803      4.35624         0.007620      0.007294      0.069727
Li	      4.29840      4.16761      4.26124        -0.000430      0.000346      0.005682
Li	      6.42170      4.20637      6.29386        -0.001008     -0.004159      0.012180
Li	      4.30933      8.41148      4.39291         0.034960      0.021028     -0.010052
Li	      2.06839      4.24533      6.34570        -0.010071      0.005948     -0.012545
Sc	      0.08114      2.02758      2.06431         0.086484      0.016828     -0.053296
Sc	      2.22560      4.10458      2.07491        -0.031084     -0.088162     -0.045329
V	      4.26939      2.12081      6.34379        -0.004181      0.010217     -0.005713
Cr	      2.14971      6.22808      4.31185         0.015043     -0.034489      0.118945
Cr	      4.27569      4.23133      8.50748         0.055202      0.074445     -0.034114
Cr	      6.38717      6.29804      8.50934        -0.047575     -0.054864     -0.028333
Fe	      6.39324      2.22508      4.28058        -0.090105     -0.012012      0.046997
Fe	      6.49979      6.21098      4.28592        -0.058647      0.020663     -0.037509
Fe	      4.21606      6.40272      6.35765         0.066231     -0.241491      0.044972
O	      2.09272      2.08447      2.25579        -0.017361      0.005073     -0.047587
O	      4.23129      4.24844      2.08763         0.007533     -0.068554      0.013476
O	      4.25137      2.10954      4.29867         0.100197      0.009464     -0.011389
O	      6.41732      4.22299      4.24321        -0.012191     -0.033661      0.021302
O	      6.29145      2.14066      6.33203        -0.000814     -0.010924      0.047960
O	      8.52355      4.31812      6.42452        -0.010676     -0.025325      0.011542
O	      2.14241      4.16012      4.20107         0.011715      0.044227     -0.029746
O	      4.27520      6.25050      4.27482        -0.025674     -0.000668     -0.069588
O	      4.26910      4.14162      6.52092        -0.008733      0.070782      0.028891
O	      6.45941      6.29414      6.37210        -0.025736      0.002236      0.077933
O	      6.36224      4.23452      8.51269        -0.028355      0.039382      0.000212
O	      8.51832      6.32482      8.54832        -0.040090      0.058786      0.024485
O	      2.24968      6.26318      6.25803        -0.110060      0.009061     -0.011438
O	      4.29504      8.27570      6.39540         0.038075      0.152578     -0.039042
O	      4.42226      6.19322      8.40300        -0.003238      0.035800      0.075746
O	      6.52612      8.30502      8.59335         0.012574     -0.004335     -0.014671
O	      6.52995      6.35209     10.51220        -0.004130     -0.015109      0.009352
O	      8.47503      8.29703     10.55426         0.072139      0.002817     -0.037049
