# total energy = -228.96050957 eV
 
CRYSTAL
PRIMVEC
0.020528 6.320201 6.411417 
6.338880 0.026854 6.404533 
4.247435 4.230545 -0.003493 
PRIMCOORD
36 1
Li	      0.16781      6.38156      6.34772        -0.007612     -0.003912     -0.011789
Li	      2.12178      8.25439      6.35786        -0.044504      0.038252     -0.029358
Li	      2.09836      6.33987      8.36916         0.004681     -0.016864     -0.045606
Li	     10.41201      6.39964      8.63559        -0.010013      0.032313      0.039580
Li	      6.24450      4.29530     10.55440         0.002596      0.015902      0.008196
Li	      2.18960      6.30540      4.34431        -0.037075     -0.029940      0.026976
Li	      2.20054      4.42079      6.32702        -0.007036     -0.035183     -0.030097
Li	      4.01566      6.29089      6.31906         0.078510     -0.025497     -0.027511
Li	      8.53174      8.33968      8.67384        -0.014652      0.007633     -0.002837
Sc	      6.28042      6.39974      4.27441        -0.016156      0.020863      0.036249
Sc	      6.37036      4.21454      6.56246        -0.025589     -0.044235     -0.008136
V	      4.27622      8.41825      8.27621         0.021205     -0.024475      0.175116
Cr	      6.41838      8.41014     10.68867         0.061135      0.004885      0.040697
Cr	      4.22946      4.23470      4.27510         0.023976      0.002842      0.005338
Cr	      8.49971      6.35185      6.45747         0.019852      0.029280     -0.018915
Ni	      8.53753     10.52001     10.71100        -0.030952      0.025604      0.002809
Ni	      8.49129      4.27798      8.54543         0.013741     -0.041851     -0.021931
Ni	      6.39779      6.36250      8.56543        -0.035657      0.016680      0.004336
O	      2.12890      6.34020      6.40696        -0.030276     -0.012526     -0.096180
O	      2.39084      2.13664      2.17946         0.015090     -0.078385      0.017602
O	      4.24269      3.99802      2.25378         0.055097     -0.004096      0.024338
O	      4.28687      2.15118      4.38197         0.022530      0.143320     -0.031261
O	      6.31157      4.18710      4.32448        -0.092052      0.043601     -0.016608
O	      6.28209      2.13881      6.31013        -0.017063      0.021044      0.018247
O	      8.46134      4.33143      6.39588        -0.020139      0.049988      0.067934
O	      2.23040      4.19064      4.21835         0.017962     -0.007101      0.080070
O	      4.29932      6.21955      4.19675         0.013194      0.002337      0.111281
O	      4.26850      4.16544      6.31745        -0.009199     -0.026820     -0.049996
O	      6.46263      6.32198      6.38560         0.024788      0.016455     -0.056196
O	      6.38700      4.27445      8.56600        -0.082614     -0.114008      0.002095
O	      8.44973      6.33258      8.42080         0.044853      0.049064     -0.010883
O	      4.29810      8.43720      6.58067         0.017192     -0.037765     -0.153171
O	      4.29991      6.58661      8.65404        -0.087494      0.023882     -0.139657
O	      6.16838      8.45332      8.67658         0.006672      0.084068     -0.065372
O	      6.32256      6.47579     10.64370         0.081208     -0.049615      0.096374
O	      8.33452      8.51455     10.65899         0.043801     -0.075742      0.058268
