# total energy = -253.70077809 eV
 
CRYSTAL
PRIMVEC
0.048103 6.364905 6.326776 
6.331000 0.052185 6.322631 
4.268436 4.288305 -0.012950 
PRIMCOORD
36 1
Li	      4.17652      4.26454      0.13491         0.004231      0.000051     -0.071120
Li	      2.15570      2.28149      0.11092         0.046842     -0.028623     -0.004094
Li	      4.18104      2.30935      2.05305         0.017440      0.073477      0.010354
Li	      8.48892      4.33553      8.21277         0.045950      0.019314      0.053024
Li	      4.21396      4.30997      4.12832         0.000012      0.018803     -0.051020
Li	      8.47922      6.37780      6.39052        -0.000754     -0.000183     -0.010875
Li	      6.48503      4.27480      6.48828         0.020927     -0.001048     -0.054654
Li	      6.42445      4.27385     10.45208         0.005288     -0.015675     -0.003803
Li	      6.44845      6.23504      8.42180         0.006573     -0.065298      0.024998
Sc	      8.63905     10.64425     10.64499         0.031748     -0.020648     -0.005153
Sc	      6.26070      2.23274      4.38566        -0.018306      0.011407      0.040759
Ti	      6.34480      8.50961      6.30857        -0.295041     -0.110265     -0.012460
Mn	      4.31324      6.40101      6.31384         0.005401      0.028901     -0.007523
Cr	      2.06634      0.04272      2.06066        -0.002550      0.062558     -0.007334
Cr	      6.33909      2.18212      8.37336         0.011945     -0.010665     -0.009369
Cr	      2.16223      2.16825      4.17401        -0.028317      0.009878     -0.010578
Cr	      8.47678      6.42924     10.52123         0.026919     -0.016917      0.060558
Cr	      4.26573      4.24447      8.40121         0.040904     -0.019600      0.081669
O	      2.05909      2.06739      2.17184        -0.018697      0.019231      0.008897
O	      4.36920      4.40459      2.08753        -0.018130      0.000804      0.012684
O	      4.19004      2.10350      4.15121         0.015859      0.048584      0.001473
O	      6.41640      4.38148      4.08880        -0.009577     -0.006196     -0.004381
O	      6.33272      2.21488      6.34787        -0.010277      0.001781     -0.002517
O	      8.49251      4.28606      6.26138        -0.012007      0.063684     -0.015616
O	      2.16454      4.27755      4.32857        -0.025931     -0.010949      0.097317
O	      4.29257      6.41799      4.11706        -0.015587     -0.016323     -0.045263
O	      4.10476      4.25160      6.42644        -0.064092     -0.064096     -0.020363
O	      6.43981      6.54467      6.18528         0.054180      0.083626      0.016629
O	      6.25269      4.21302      8.42420        -0.010657     -0.023498     -0.002577
O	      8.56888      6.49128      8.53558        -0.011205      0.007542     -0.024506
O	      2.14670      6.27729      6.27797        -0.060507     -0.056222      0.021962
O	      4.45907      8.53389      6.37729         0.283871      0.035927     -0.024213
O	      4.17450      6.25922      8.45918        -0.014670     -0.017859      0.041453
O	      6.45599      8.65104      8.36730         0.022400      0.004514     -0.065788
O	      6.45765      6.50370     10.47339        -0.011303     -0.017689      0.041109
O	      8.45794      8.47942     10.47471        -0.012882      0.011670     -0.059679
