# total energy = -220.29494442 eV
 
CRYSTAL
PRIMVEC
0.020283 6.217396 6.255454 
6.212569 0.011675 6.263496 
4.173374 4.181959 -0.023862 
PRIMCOORD
36 1
Li	      0.06309      0.05930      0.05261        -0.039962      0.018919     -0.018991
Li	      6.24529     10.32353      8.22521        -0.013389     -0.007808      0.066474
Li	      6.27779      8.20485     10.44458        -0.031214     -0.000603      0.011354
Li	      6.14099      2.06256      8.23665         0.027327     -0.005229      0.006839
Li	      2.07050      2.11854      4.03224         0.023248     -0.025806     -0.132217
Li	      4.26789      2.13959      6.39203         0.027167     -0.055841     -0.040715
Li	      6.14814      4.14407      6.37900         0.045706     -0.004625     -0.009376
Li	      8.26567      6.26799     10.38684        -0.009044     -0.008312     -0.046276
Li	      6.29149      8.35443      6.35754        -0.012418     -0.060812      0.003162
Sc	      1.95926      1.98339      0.03376        -0.129777      0.153054      0.083385
Sc	      4.17187      4.25753      4.20049         0.070939     -0.016360     -0.143116
Ti	      0.12014      4.08264      4.17501         0.159102     -0.022065     -0.160698
V	      8.16922      4.32790      4.22171        -0.031511      0.114164     -0.064791
Co	      8.28680      8.28974      8.32187        -0.053544     -0.022787      0.055650
Cu	      4.17484      6.19875      6.28471         0.081546      0.010021     -0.203552
Ni	      4.23325      8.34867      8.23944         0.109045     -0.064056      0.047541
Ni	      8.35385      4.23192      8.27326        -0.049461      0.073989     -0.095738
Ni	      6.23650      6.24768      8.33892         0.115641      0.027728      0.226204
O	      6.10851      6.23587      6.47590        -0.380416     -0.024560     -0.494695
O	      2.19946      2.19818      2.02487        -0.120004     -0.124805     -0.125528
O	      4.17472      4.13298      2.15666         0.122631      0.119376      0.008659
O	      4.15704      1.95696      4.11455        -0.008444     -0.016532      0.078101
O	      6.36764      4.22124      4.17299        -0.048064      0.002251      0.033830
O	      6.23251      2.07667      6.22411         0.074742     -0.008468     -0.016033
O	      8.34317      4.18310      6.02057         0.030934     -0.037567      0.158322
O	      2.04363      4.17558      4.09222        -0.230055      0.022353      0.111202
O	      4.21780      6.32866      4.03337        -0.028104      0.172813     -0.017009
O	      4.14215      4.18317      6.34623         0.004003      0.111182      0.185627
O	      6.13448      4.22435      8.42885        -0.072639     -0.309586      0.116151
O	      8.24618      6.33553      8.33193         0.198456      0.129846     -0.046464
O	      2.19684      6.21619      6.22086         0.127289     -0.094025     -0.006394
O	      4.19616      8.31666      6.09092         0.046273     -0.051882     -0.054061
O	      4.15100      6.10307      8.57312        -0.135968     -0.094255      0.027731
O	      6.33640      8.21776      8.38290         0.142890      0.345485     -0.002675
O	      6.10431      6.12867     10.31748        -0.027082     -0.161035      0.427800
O	      8.39677      8.42986     10.32012         0.014156     -0.084162      0.030294
