# total energy = -219.85397329 eV
 
CRYSTAL
PRIMVEC
0.012402 6.411530 6.226553 
6.274120 -0.003820 6.243508 
4.185252 4.287764 -0.005329 
PRIMCOORD
36 1
Li	      8.33606      4.29292      4.16603         0.022277      0.007092     -0.026985
Li	      4.19144      6.44699      2.18071         0.019371     -0.034961      0.019146
Li	      6.18037      6.53898      4.16782         0.015315      0.056001     -0.015528
Li	      4.15515      4.34125      4.27305        -0.007648      0.010600      0.000249
Li	      4.15774      2.19341      6.16045         0.033793      0.058716     -0.008781
Li	      4.23388      8.40402      4.15165        -0.020409      0.014177      0.093444
Li	      2.22414      6.38511      4.10480        -0.052325     -0.014481     -0.006194
Li	      2.17107      4.21624      6.09651        -0.021617     -0.008979     -0.054191
Li	      6.33876      6.40985      8.25719         0.008767      0.010125     -0.024906
Sc	      8.35773      8.56746     12.39218         0.120450     -0.066660     -0.005250
Sc	      4.25742      8.50605      8.40213        -0.069359      0.055639     -0.017795
Ti	      8.29249      4.43681      8.44500         0.161769      0.222744      0.752611
V	      6.27504      6.41799     12.36305         0.113176     -0.213119      0.018596
Co	      6.19679      4.40784      6.17879         0.004167      0.076716     -0.413912
Cu	      6.26516      4.28534      2.14872        -0.084434      0.018377      0.143580
Cu	      6.26938      2.14404      4.15815         0.014976     -0.146069     -0.043225
Ni	      4.20381      6.35864      6.19256        -0.282721     -0.035524     -0.017890
Ni	      8.36773      8.47558      8.32432         0.178152     -0.058351     -0.060185
O	      2.15717      2.33573      2.05368        -0.155724      0.169601     -0.048566
O	      4.17217      4.28605      1.92064        -0.094999      0.005035      0.031425
O	      4.27780      2.11923      4.15844        -0.181266     -0.052665     -0.006798
O	      6.29140      4.13864      4.19821        -0.024730      0.135375      0.393497
O	      6.27828      2.05137      6.19226        -0.083244      0.065289      0.100138
O	      8.43655      4.26268      6.28198        -0.064872      0.086925      0.077391
O	      2.09224      4.30667      4.03169        -0.058843      0.051623     -0.701553
O	      4.18205      6.40812      4.34064         0.041968      0.010801     -0.288795
O	      4.27473      4.31791      6.29139        -0.302249     -0.079919     -0.074850
O	      6.13645      6.32787      6.18230         0.331227     -0.029994      0.066555
O	      6.36903      4.26379      8.16847         0.154130      0.079032      0.021346
O	      8.39734      6.31839      8.31491        -0.029111     -0.413960      0.022906
O	      2.02493      6.45127      6.35342         0.105896      0.077034     -0.118546
O	      4.19146      8.69440      6.21669         0.025019     -0.021590      0.081633
O	      4.08684      6.39809      8.15719         0.098987      0.047462      0.248843
O	      6.31856      8.43213      8.40052        -0.029927     -0.057056     -0.161661
O	      6.28887      6.45687     10.58157         0.002715     -0.030741     -0.070906
O	      8.31975      8.55241     10.35004         0.111321      0.005703      0.095158
