# total energy = -220.08343744 eV
 
CRYSTAL
PRIMVEC
-0.041734 6.173445 6.386324 
6.264482 -0.031701 6.376550 
4.190806 4.123326 -0.035758 
PRIMCOORD
36 1
Li	      4.16063     10.28734      6.37076         0.036215     -0.024305     -0.056760
Li	      6.34646      4.05774      2.21643         0.064847     -0.031189      0.001303
Li	      4.29570      8.10239      8.54828        -0.025256      0.051892      0.005966
Li	      4.01366      0.10039      4.18777         0.021876     -0.068833     -0.057837
Li	      6.11657      2.16278      4.13605        -0.050126      0.055500     -0.076679
Li	      4.27922      4.03740      4.31138        -0.032194      0.028347      0.031814
Li	      6.30879      4.13707      6.17365        -0.059478     -0.011272     -0.034572
Li	      4.13880      6.17618      6.44357         0.008444      0.006732      0.000465
Li	      6.10672      6.26763      8.49872         0.018409     -0.032377      0.079945
Sc	      2.08322      8.24969      6.36579         0.077427     -0.104444     -0.101713
Sc	      4.07489      4.22337      8.48062        -0.058098      0.005216      0.085907
Ti	      4.16926      6.01213      2.09867        -0.074526     -0.026019      0.043746
V	      6.27422      4.22312     10.65609        -0.156744      0.035043      0.028334
Co	      6.29705      6.12813      4.22455        -0.102740     -0.027502      0.018235
Cu	      8.30752      4.08707      8.46578        -0.025748     -0.051233     -0.009213
Cu	      4.14551      1.98330      6.27581         0.080243      0.013923      0.012468
Cu	      6.24731      8.24702      6.39235        -0.084400      0.012937      0.062160
Ni	      2.13358      6.12628      4.29355         0.023598      0.056975     -0.002127
O	      6.34314      6.22175      6.13395        -0.074948     -0.134444      0.058227
O	      1.97336      2.07887      2.18585        -0.019070     -0.068449     -0.074660
O	      4.05426      4.18320      2.14869         0.147167      0.061409     -0.035864
O	      4.01463      2.04769      4.31576         0.027408     -0.001262     -0.148781
O	      6.22726      4.25073      4.22084         0.030334      0.029184     -0.059016
O	      6.26112      2.04194      6.55400         0.094839     -0.016177      0.159404
O	      8.37236      4.10970      6.32184        -0.035942     -0.007719      0.084537
O	      1.99198      4.04043      4.33010         0.253035     -0.164557     -0.243484
O	      4.26737      6.29208      4.11855         0.018423     -0.123599     -0.060155
O	      4.06888      3.97777      6.40191         0.145346      0.085950     -0.091835
O	      6.27915      4.01713      8.64124        -0.049372     -0.047479     -0.186565
O	      8.44784      6.10864      8.55912         0.109080      0.003257     -0.095982
O	      2.06625      6.15314      6.29077         0.029163      0.148534      0.225961
O	      4.18961      8.21612      6.19779        -0.133778      0.002327      0.243601
O	      4.17724      6.14795      8.45972        -0.062817      0.043795      0.024353
O	      6.25111      8.22657      8.45305        -0.000507     -0.027260      0.202007
O	      6.33012      5.98974     10.58960        -0.118940      0.175685      0.006154
O	      8.46011      8.15218     10.63108        -0.021172      0.151414     -0.039344
