# total energy = -220.15857802 eV
 
CRYSTAL
PRIMVEC
-0.025638 6.249500 6.197621 
6.348714 -0.038048 6.209656 
4.215632 4.157673 -0.008387 
PRIMCOORD
36 1
Li	      8.44170      2.04137      6.19656        -0.076224      0.082975      0.048111
Li	      4.19220      2.00975      2.11058        -0.041465     -0.013130     -0.066470
Li	      2.16158      2.09454      4.10239         0.088287     -0.156230     -0.086706
Li	      8.41950      6.16633      6.22831         0.079246     -0.211277      0.168669
Li	      6.40100      4.15217      6.21581         0.208870     -0.036476      0.072280
Li	     10.50640      8.29424     10.30259        -0.301518      0.191645     -0.111416
Li	      2.17107      6.15580      4.10836        -0.115138      0.128529     -0.011935
Li	      8.41896      8.30368      8.26111         0.038171     -0.097228      0.038457
Li	      6.38213      6.16628      8.29359         0.112572     -0.061472      0.058524
Sc	      4.19644     10.29518      6.21241        -0.501872      0.247846     -0.185994
Sc	      6.32764      8.33143     10.23126         0.311039     -0.219666      0.038379
Ti	      6.29201      2.17718      8.26055        -0.064227      0.698325     -0.742817
V	      4.34051      6.23624      6.21078         0.051174      0.279873      0.876024
Co	      8.41907      4.16203      4.19014         0.380324     -0.342185      0.565676
Ni	      2.11198      6.27578      8.24582        -0.032873      0.151587     -0.024697
Ni	      2.07352      4.14152      2.11539        -0.171475      0.019388     -0.477723
Ni	      4.16991      4.14604      4.13347        -0.653135      0.008096     -0.032463
Ni	      2.11188      4.15750      6.18562        -0.031100     -0.042203      0.187581
O	      1.95036      2.10389      2.08542        -0.258511     -0.502133      0.143902
O	      4.24185      4.21289      2.11015         0.047439     -0.084677      0.366095
O	      4.24543      1.94953      4.16368        -0.159736      0.737814     -0.040099
O	      6.44309      4.16735      4.11279        -0.565893      0.092432      0.157281
O	      6.33392      1.98380      6.29590        -0.051853     -0.014319      0.181612
O	      8.48994      4.10607      6.29560         0.162571      0.056566     -0.721694
O	      2.17315      4.13220      4.10847         1.040485     -0.059205      0.653832
O	      4.18993      6.22660      4.20646         0.073392     -0.630168     -0.124843
O	      4.17911      4.34630      6.13565         0.133098      0.035378     -0.279698
O	      6.12845      6.24200      6.21652        -0.226811     -0.104076     -0.124176
O	      6.33984      4.03303      8.27540        -0.176307     -0.429719      0.136036
O	      8.57620      6.12304      8.29868         0.424387      0.574562      0.147585
O	      2.13107      6.21891      6.17671         0.151600      0.113138     -0.245660
O	      4.21512      8.17501      6.16024        -0.018956     -0.291746     -0.173757
O	      4.14899      6.25344      8.03535         0.152439     -0.017605     -0.320945
O	      6.31861      8.36253      8.21334        -0.048764     -0.129374      0.110710
O	      6.17502      6.24256     10.35728        -0.014459     -0.109518     -0.027682
O	      8.38696      8.53689     10.32345         0.055223      0.134251     -0.151979
