# total energy = -224.17029155 eV
 
CRYSTAL
PRIMVEC
-0.016492 6.245495 6.281925 
6.235940 -0.009576 6.275150 
4.142370 4.144481 0.008487 
PRIMCOORD
36 1
Li	      2.09641      6.25583      8.35245         0.009801     -0.029105     -0.030791
Li	      4.12249      2.11452      2.11382         0.059652      0.006217     -0.006249
Li	      8.29751     10.38067     10.48556         0.049742     -0.045888     -0.006519
Li	      8.18492      6.28853      6.28014         0.003655      0.050917      0.040127
Li	      6.19109      4.26277      6.24289        -0.021949      0.010717      0.051713
Li	      6.24131      4.24606     10.46801        -0.043785      0.044184     -0.021975
Li	      2.02856      6.17282      4.24208         0.019697      0.000221     -0.015214
Li	      4.18346      6.12399      6.23818        -0.044631      0.002129      0.041590
Li	      4.14063      4.17905      8.31577        -0.006921     -0.004967     -0.051411
Sc	      6.21864      2.11169      4.13509         0.041506     -0.065842     -0.045641
Sc	     10.27392      6.23585      8.40422        -0.054751      0.040872     -0.024971
Ti	      2.21804      8.30058      6.24313         0.088238      0.030456     -0.267470
V	      6.11799      6.20899      8.34858        -0.068565      0.048070      0.044189
Co	      0.00974      6.21824      6.25116         0.006560     -0.038260     -0.041172
Co	      2.08940      4.17328      6.30022        -0.111481     -0.017576      0.086788
Cu	      4.14942      4.14151      4.26329         0.025014     -0.000612     -0.036881
Ni	      8.29224      4.14048      8.36318        -0.019590      0.009630      0.016964
Ni	      6.24261      6.18814      4.22232         0.027071      0.011467     -0.003175
O	      2.04316      2.08050      1.99826         0.031187     -0.089461     -0.059609
O	      4.09182      4.16246      1.90268         0.114965      0.038502     -0.016924
O	      4.14105      2.23787      4.20633         0.043363     -0.130488      0.023373
O	      6.19288      4.16480      4.21082         0.013652     -0.060331     -0.027057
O	      6.35416      1.94082      6.25714         0.021032     -0.031117      0.017385
O	      8.43075      4.01108      6.28438         0.074380     -0.145141     -0.103413
O	      2.11258      4.08790      4.34498         0.003339      0.119956      0.055089
O	      4.17730      6.04393      4.17970        -0.066014      0.123442     -0.015811
O	      3.94196      4.17687      6.31597         0.076004     -0.027908      0.051995
O	      6.19954      6.37715      6.37805         0.012486     -0.002673      0.000666
O	      6.23995      4.19205      8.32816        -0.110360     -0.036822      0.046441
O	      8.18035      6.18168      8.39479        -0.005565      0.103522     -0.009892
O	      1.97011      6.21894      6.29985        -0.063658     -0.013335     -0.002783
O	      4.16621      8.39382      6.27985        -0.165236      0.058777     -0.025199
O	      4.34240      6.22049      8.41289         0.011527     -0.000800      0.026494
O	      6.23364      8.22851      8.30113         0.000483      0.010831     -0.002007
O	      6.21162      6.26429     10.45468         0.027686      0.057330      0.054638
O	      8.29722      8.29428     10.63808         0.021467     -0.026915      0.256712
