# total energy = -140.05344048 eV
 
CRYSTAL
PRIMVEC
2.095364 -4.160165 2.085809 
4.150121 -0.008319 -4.147524 
4.111094 6.181467 2.047203 
PRIMCOORD
24 1
Li	      5.14066      1.07764     -3.10291        -0.018348      0.019586     -0.008167
Li	      3.14471      0.96473     -1.05852         0.019239     -0.018082      0.012702
Li	      3.05135      3.08516      1.05809        -0.001429      0.002735     -0.000424
Li	      5.19575      3.08255     -1.09055        -0.002594      0.000560     -0.014258
Li	      5.19293      5.14874      0.97838         0.005195     -0.004500     -0.001737
Li	      7.19839      5.14133     -1.01890         0.002818      0.000045      0.010936
Mn	      5.18450      1.00793      1.01559        -0.003549      0.002475      0.013809
Mn	      3.11535     -1.05448      1.03660         0.000524      0.000821      0.000636
Mn	      5.15689      3.06456      3.10523         0.003592     -0.000440     -0.013679
Ni	      7.23888      1.00391     -1.02939         0.016402      0.014028     -0.015427
Ni	      5.19049     -1.05844     -1.03706        -0.000507     -0.002070     -0.000171
Ni	      7.25264      3.06019      1.00284        -0.013997     -0.013220      0.014764
O	      5.17690      1.13144      2.98906         0.090613      0.015265     -0.014994
O	      7.09619      0.97769      1.02508        -0.043254     -0.101000      0.107274
O	      3.02560     -2.99955      1.03250        -0.025388      0.018516      0.106003
O	      5.19566     -3.14874     -1.17358         0.107080     -0.094770     -0.042275
O	      5.06482     -0.94777      1.03841        -0.021066      0.023191      0.105484
O	      7.25297     -1.04899     -1.17258         0.099777     -0.113439     -0.039528
O	      5.18503      1.03167     -0.90033        -0.108336      0.094312      0.042476
O	      3.20500      0.89050      1.04082         0.023610     -0.019046     -0.104333
O	      7.39546      3.08652     -1.05144         0.043410      0.098854     -0.106888
O	      5.16439      2.94107      1.13188        -0.092083     -0.016272      0.014599
O	      5.31617     -1.16942     -3.11265         0.018681     -0.022900     -0.104430
O	      3.12775     -1.06834     -0.90183        -0.100388      0.115353      0.037630
