# total energy = -223.24877729 eV
 
CRYSTAL
PRIMVEC
0.017063 6.388936 6.154180 
6.335943 -0.011700 6.183252 
4.184782 4.239251 0.031596 
PRIMCOORD
36 1
Li	      6.37076      6.37996     12.20632         0.007492     -0.016445      0.010788
Li	      6.27263      2.08444      4.14744         0.033141      0.050665     -0.037305
Li	      6.22798      6.42425      4.32782        -0.007811      0.010225     -0.015497
Li	      4.22401      4.31781      4.25499         0.065317      0.067068     -0.032734
Li	      6.21064      4.28477      6.12852         0.031612      0.025810     -0.024632
Li	      2.10804      6.32688      4.17992         0.005213     -0.011996      0.021160
Li	      2.25272      4.21279      6.06257         0.039057     -0.016849      0.079937
Li	      4.22936      6.27294      6.10057        -0.019531     -0.030736      0.020857
Li	      4.25583      4.22805      8.11633        -0.003629     -0.005853      0.010930
Sc	      4.27213      8.48167      8.25762         0.051731      0.027944      0.063978
Sc	      8.42081      4.31925      8.30627        -0.071218      0.018985      0.062159
Ti	      8.39719      8.48484     12.21408        -0.106440     -0.019976     -0.242610
V	      6.30100      4.19205      2.15837        -0.064027      0.092640      0.253534
Co	      4.20588      6.38076      2.12894        -0.088889      0.038795      0.182002
Co	      4.18097      8.45254      4.14655         0.038816     -0.041595     -0.094962
Cu	      4.22045      2.26401      6.11091         0.145622      0.087643     -0.080902
Cu	      6.33714      6.36519      8.23529        -0.087520     -0.011493      0.011020
Ni	      4.26459      6.38008     10.29737        -0.080397     -0.027401     -0.013450
O	      4.25603      4.21577      6.14120        -0.020974     -0.013706      0.001608
O	      6.44813      6.34786      6.34551        -0.005681      0.018959      0.076380
O	      2.05815      2.11315      2.03689         0.080113     -0.001667     -0.112466
O	      4.24821      4.30758      2.15535        -0.045590     -0.033138     -0.037672
O	      4.23180      2.05679      4.17703         0.034105      0.055942     -0.196549
O	      6.34761      4.28426      3.97002        -0.051275     -0.021365     -0.153176
O	      6.42088      2.09574      6.27445         0.126720     -0.034226     -0.022296
O	      8.42589      4.07562      6.21425        -0.003234     -0.075763      0.089824
O	      1.92551      4.27423      4.12654        -0.052873     -0.020745      0.007491
O	      4.16860      6.50015      4.03468         0.011856      0.096413     -0.034312
O	      6.35009      4.06163      8.36881        -0.046725     -0.103296      0.097155
O	      8.59562      6.37093      8.12800        -0.029152     -0.029748      0.113822
O	      2.09622      6.54919      6.34624        -0.017250      0.087662     -0.102481
O	      4.06367      8.51608      6.14251        -0.070612     -0.003123     -0.052835
O	      4.15342      6.42336      8.21572         0.001155     -0.065183     -0.122941
O	      6.27981      8.65855      8.22781         0.082198      0.057907     -0.003838
O	      6.30014      6.18816     10.15258         0.098181     -0.074585     -0.035098
O	      8.48294      8.47475     10.34338         0.020497     -0.077772      0.313112
