# total energy = -222.63032272 eV
 
CRYSTAL
PRIMVEC
0.021887 6.141693 6.538678 
6.310760 0.035843 6.526470 
4.238147 4.116475 -0.007389 
PRIMCOORD
36 1
Li	      8.44925      8.23974     12.92465         0.153433     -0.015756      0.003564
Li	      4.32878      8.16392      8.52029        -0.035073      0.015210     -0.142567
Li	      8.42439      4.08304      4.40523         0.077143     -0.027524      0.063814
Li	      6.53522      8.15373     10.77556         0.032851     -0.023584      0.051739
Li	      8.38839      4.13329      8.63629         0.034507      0.030246     -0.037770
Li	      6.31388      4.09054      6.68900        -0.004596     -0.021366     -0.005884
Li	      8.32898      6.32550     10.98860        -0.035745     -0.051119      0.155585
Li	      6.31815      8.27007      6.69816        -0.110795      0.031680     -0.043580
Li	      8.37672      8.25918      8.86634         0.014491     -0.023452      0.060888
Sc	      4.24011      4.10750      4.26273        -0.048967      0.040045      0.125537
Sc	     10.46379      8.31976     10.87818        -0.011170      0.056807      0.420336
Ti	      2.21477      2.02983      4.22741         0.114588      0.144958      0.029439
V	      8.37975      6.17302      6.66368         0.218562     -0.002994     -0.215028
Co	      6.31946      0.05220      6.53194        -0.133765     -0.117329      0.234690
Co	      4.20650      6.21633      6.61450         0.245159     -0.162157     -0.139341
Cu	      6.42964     10.17338      8.67643        -0.061620      0.027944     -0.146435
Cu	      6.42373      2.17180      8.59924        -0.088355      0.020764     -0.146092
Cu	      6.23334      6.21017      8.73489        -0.010434     -0.022811     -0.006483
O	      6.30304      8.15003      8.73826         0.067119      0.113060     -0.054882
O	      2.13988      2.04987      2.32283         0.058556     -0.062358      0.161422
O	      4.24637      4.29178      2.11880         0.060800     -0.164578     -0.366524
O	      4.10317      2.04585      4.44612        -0.214517      0.014204     -0.096351
O	      6.32669      4.17392      4.16372         0.055879      0.027235     -0.013549
O	      6.08771      2.00392      6.53687        -0.009342     -0.141226      0.003862
O	      8.52672      4.30504      6.53998         0.420831     -0.003721     -0.058884
O	      2.16318      3.98670      4.28251         0.079565     -0.156456     -0.097198
O	      4.37937      6.14785      4.56189         0.041475     -0.051870      0.334566
O	      4.27358      3.92618      6.39730        -0.067842      0.086474      0.005549
O	      6.52211      6.09858      6.31966        -0.030724     -0.037045     -0.067915
O	      6.32828      4.11515      8.75113         0.018818      0.146517     -0.150636
O	      8.23867      6.21375      8.44981        -0.105748      0.033241      0.289792
O	      2.09730      6.15763      6.74043        -0.435691      0.042712     -0.020673
O	      4.26455      8.29362      6.50510        -0.000156      0.191483     -0.055954
O	      4.31449      6.14479      8.54659        -0.218985      0.016377     -0.262258
O	      6.38945      6.20554     11.12296        -0.017219      0.040688      0.268317
O	      8.50629      8.23293     10.90957        -0.053031      0.005699     -0.081095
