# total energy = -226.16930619 eV
 
CRYSTAL
PRIMVEC
0.019057 6.274974 6.391561 
6.247437 0.059323 6.351914 
4.198932 4.191039 0.005146 
PRIMCOORD
36 1
Li	      6.23928      6.31165     12.55574        -0.001084      0.013731     -0.004754
Li	      2.08236      6.29970      8.47443        -0.014285     -0.006479     -0.020263
Li	      8.50365     10.43594     10.68814        -0.018333     -0.040059     -0.045635
Li	      2.11522      4.25601      2.22820         0.026720      0.031410      0.052223
Li	      2.11816      2.27500      4.38004         0.004928      0.012724      0.035364
Li	      4.11983      2.12858      6.29931         0.030806     -0.054261      0.017934
Li	      0.09385      4.27944      4.38731         0.046757      0.018624     -0.006671
Li	      2.13743      4.10085      6.23394        -0.007931      0.002697      0.036486
Li	      4.15679      6.34584      6.31819        -0.007861     -0.007488      0.000794
Sc	      4.21045      8.37357      8.47451         0.041628     -0.038997      0.002188
Sc	      6.32252      4.27597      6.28931        -0.006875      0.002457     -0.082052
Ti	      8.22471      8.47558      8.44143        -0.153918      0.127052      0.059577
V	      4.31445      6.25290      2.24193        -0.016447      0.037635      0.042596
Co	      2.15802      8.34286      6.39255         0.068927     -0.082639     -0.014484
Co	      4.15026      4.19169      4.29186         0.025026     -0.058345      0.001079
Co	      6.33677      6.28601      8.48125        -0.070694      0.006519     -0.078783
Cu	      6.22325      2.10354      4.23909        -0.026523      0.038293     -0.021277
Ni	      2.08083      6.24850      4.32444         0.037688      0.038788     -0.016626
O	      1.95244      2.09885      2.24474         0.020009      0.017241     -0.009750
O	      4.17005      4.29943      2.33266        -0.003781      0.029575      0.104678
O	      4.21565      2.23700      4.21698        -0.063465      0.134259      0.005141
O	      6.11492      4.09523      4.27235        -0.072593      0.019711     -0.005618
O	      6.37806      2.07856      6.68228         0.039487      0.004105      0.118148
O	      8.34547      4.04832      6.34709        -0.027834     -0.092996      0.022888
O	      2.22382      4.25118      4.28251         0.081703     -0.149195      0.000971
O	      4.18037      6.17029      4.12502         0.109234     -0.051936     -0.049076
O	      4.19725      4.21373      6.41304         0.062277     -0.040878      0.001157
O	      6.32153      6.25354      6.46195         0.003872     -0.097603     -0.008399
O	      6.17230      4.04112      8.53281        -0.021610      0.016057     -0.018178
O	      8.49972      6.41895      8.47589         0.027894      0.104618     -0.057841
O	      2.10838      6.50603      6.32447        -0.060182      0.196937      0.189386
O	      4.07128      8.40112      6.41678        -0.141207      0.013290      0.030713
O	      4.20917      6.24200      8.50409        -0.049430     -0.178932     -0.042804
O	      6.32009      8.45946      8.28587         0.202803     -0.047894     -0.070898
O	      6.29099      6.40864     10.49058        -0.103701     -0.021318     -0.040448
O	      8.26321      8.39372     10.39601         0.037991      0.103295     -0.127766
