# total energy = -225.10206361 eV
 
CRYSTAL
PRIMVEC
0.029527 6.262276 6.415273 
6.350064 -0.035583 6.478416 
4.196305 4.180873 0.013282 
PRIMCOORD
36 1
Li	      6.33454      4.12263      2.42397         0.014259      0.020215     -0.050422
Li	      6.17049      2.28540      4.27156         0.002206     -0.007372      0.010933
Li	      2.14551      4.11062      2.21905        -0.004854     -0.005906      0.025918
Li	      6.43377      6.08908      4.52829         0.008798     -0.001845      0.041216
Li	      4.44388      4.00499      4.26896        -0.008252     -0.014616     -0.041003
Li	      4.11168      2.18644      6.17882         0.052360      0.096753     -0.012352
Li	      6.24414      4.23527      6.22938        -0.124470     -0.045943      0.050230
Li	      6.43449      8.18860      6.46729         0.090849      0.042723      0.062311
Li	      4.34740      6.21046      6.42891        -0.057910     -0.113264      0.067732
Sc	      4.16751      4.20813      0.07393         0.090258     -0.089779     -0.089481
Sc	      6.32121      6.22808      8.45299        -0.010685     -0.022607      0.051895
Ti	      8.37757      2.15155      6.56952         0.030329     -0.011726      0.071372
V	      2.24139      6.11230      4.27705        -0.223093      0.000306      0.227569
Co	      0.05000      2.08330      2.17112         0.002391     -0.127113     -0.118952
Co	     10.52769      8.31862     10.78773        -0.047737      0.048661      0.033186
Co	      4.18357      4.21943      8.48626         0.008377     -0.201583      0.000240
Ni	      4.23473      2.11091      2.28602         0.035535      0.109547     -0.252915
Ni	      8.26851      4.24452      4.30185         0.107559     -0.014555      0.044199
O	      2.16074      2.09220      1.94469        -0.076392      0.082105     -0.367021
O	      4.19139      4.23958      2.09619        -0.005383     -0.306848     -0.009062
O	      4.21943      2.04908      4.24351        -0.002763      0.198309      0.259255
O	      6.31792      4.18208      4.32713        -0.195739     -0.004345     -0.003458
O	      6.47987      2.04012      6.45770         0.151947      0.070915      0.023361
O	      8.47046      4.04104      6.38781        -0.053981     -0.157347      0.169902
O	      1.99958      4.35074      4.32148         0.035723     -0.061719     -0.021031
O	      4.04862      6.36951      4.32054         0.053377     -0.033358     -0.009165
O	      4.23847      4.13770      6.63396        -0.013791      0.124772      0.282409
O	      6.35253      6.22317      6.52427         0.036965     -0.021243     -0.102489
O	      6.31900      4.03901      8.84255         0.031723      0.588585      0.083472
O	      8.46547      6.27575      8.90487        -0.010162     -0.117264     -0.020133
O	      2.09332      6.39352      6.14437        -0.048813      0.137954     -0.014472
O	      4.10064      8.36905      6.29881        -0.092213      0.045602     -0.107369
O	      4.27376      6.28046      8.66229         0.022710     -0.075426     -0.154667
O	      6.36986      8.31276      8.57487         0.135153     -0.000007      0.014270
O	      6.49040      6.08396     10.75118         0.010104     -0.106192     -0.010675
O	      8.59241      8.26622     10.76224         0.055616     -0.026390     -0.134803
