# total energy = -228.18382151 eV
 
CRYSTAL
PRIMVEC
-0.019145 6.311374 6.101836 
6.414821 -0.012583 6.094729 
4.292095 4.218741 -0.023875 
PRIMCOORD
36 1
Li	      4.26093     10.41021      6.04821        -0.089294      0.040199     -0.016972
Li	      8.56874      8.45017     12.11296        -0.082548      0.149058     -0.058209
Li	      6.33262      4.22009      2.03896        -0.014514     -0.106453      0.031453
Li	      4.28468      2.16852      2.05205         0.059807      0.027602      0.036058
Li	      8.57309      4.21365      4.18045        -0.022960     -0.011917      0.044823
Li	      4.32567      2.05575      6.00868         0.112866     -0.137015      0.014617
Li	      6.43530      4.20625      6.00924         0.103133     -0.102248     -0.010328
Li	     10.64385      8.50851     10.18532        -0.033108     -0.012379     -0.039701
Li	      2.06674      4.22328      6.04843        -0.017771     -0.002018      0.055919
Sc	      0.08812      2.04591      1.91856        -0.163793      0.070723     -0.288394
Sc	      4.20805      4.22222      8.09524        -0.098411     -0.103840      0.234488
Ti	      4.11583      6.46164      6.04175        -0.048716      0.170560      0.250376
V	      6.39028      6.28317      8.09952         0.094583      0.191013      0.001917
Co	      6.40996      2.18156      4.11641        -0.183900     -0.292710      0.068675
Co	      8.62071      4.12863      7.98120         0.052745      0.254619      1.099018
Co	      4.31883      4.19500      4.08221        -0.014829     -0.075157     -0.088986
Co	      2.08187      6.27681      4.13066        -0.126226      0.145645     -0.121310
Cu	      2.24560      2.06009      4.09063         0.131597      0.117243      0.254297
O	      2.11925      2.13015      2.12136         0.095348      0.302843     -0.361139
O	      4.25637      4.22416      2.11598         0.082566      0.098971     -0.017347
O	      4.48044      2.27898      4.09644        -0.051915      0.222526     -0.166180
O	      6.27380      4.28816      4.05352        -0.067178     -0.554577      0.033020
O	      6.41961      2.07159      6.01797         0.095248      0.109384      0.099630
O	      8.58598      4.19716      6.19813         0.002918     -0.198191      0.086588
O	      2.33821      4.15544      3.96773         0.028868      0.055510     -0.554616
O	      4.21181      6.19753      4.08576         0.007281     -0.051554      0.030249
O	      4.26587      4.32274      6.04607        -0.015494      0.063695     -0.208936
O	      6.35119      6.33069      6.22655        -0.067156      0.048120     -0.110909
O	      6.37993      4.22999      8.17428         0.010752      0.060200     -0.025125
O	      8.47933      6.30127      8.10480         0.061788     -0.346958     -0.122962
O	      2.24994      6.29209      6.14855         0.216054      0.117567     -0.101207
O	      4.29367      8.28720      6.01431        -0.009098     -0.329337     -0.005979
O	      4.38970      6.28943      8.04550        -0.073877      0.057142     -0.113153
O	      6.43510      8.32140      8.23485        -0.054182     -0.090618      0.024169
O	      6.38021      6.27987      9.97845         0.118932      0.244386      0.211928
O	      8.37168      8.38555     10.14779        -0.039518     -0.132035     -0.165772
