# total energy = -228.14691836 eV
 
CRYSTAL
PRIMVEC
-0.001523 6.409766 6.241123 
6.311832 0.026217 6.212854 
4.220916 4.267436 0.005730 
PRIMCOORD
36 1
Li	      8.35809      2.14830      6.19141         0.013251      0.073110      0.028119
Li	      2.13395      6.31184      8.22007         0.018596     -0.047962      0.044695
Li	      6.31360      2.30782      8.16438        -0.010338     -0.043352     -0.018867
Li	      6.39044      6.45844      4.35883         0.009991      0.024146     -0.044183
Li	      4.19791      2.09858      6.15515        -0.027083     -0.070054      0.037316
Li	      6.38100      4.19016      6.19738         0.044510      0.060695      0.006312
Li	      2.14202      6.35067      4.25444        -0.054762     -0.062702     -0.071132
Li	      2.09451      4.27945      6.21978        -0.023610     -0.033094     -0.023885
Li	      4.09159      6.48141      6.22198         0.060177      0.011167      0.053440
Sc	      0.14791      6.54212      6.22985        -0.140464      0.093799     -0.001140
Sc	      6.34204      6.38812      8.16515         0.195143     -0.123312     -0.066304
Ti	      4.10488      2.12186      2.04006        -0.228683      0.112970     -0.186725
V	      4.24628      4.51721      4.32395        -0.349822      0.015612     -0.031525
Co	      8.41474      4.30822      4.19995        -0.006570      0.062383      0.173913
Co	      8.42578      4.34428      8.26286         0.091571     -0.504290      0.112319
Co	      4.21165      8.48988      4.26323         0.126594      0.136038     -0.016259
Co	      8.40598      8.49989      8.27032         0.085267      0.004772      0.049332
Ni	      6.31826      2.16645      4.18169         0.065738     -0.013135      0.003499
O	      2.23767      2.33328      2.05904         0.060923      0.375158     -0.003369
O	      4.19875      4.14138      2.18175        -0.329500     -0.093927     -0.004510
O	      4.22826      2.03862      4.05739        -0.117195     -0.073135     -0.099420
O	      6.03599      4.22181      4.10944        -0.046472      0.071456     -0.063942
O	      6.31398      2.15579      6.20153         0.033890     -0.076388      0.032114
O	      8.43659      4.29484      6.10304         0.065524     -0.050600     -0.072922
O	      2.33231      4.24876      4.08976         0.250116      0.058762     -0.005141
O	      4.22706      6.26218      4.16364         0.000416      0.029768      0.070055
O	      4.17434      4.27394      6.08027         0.027518      0.021314      0.064007
O	      6.25981      6.39311      6.25718        -0.010416      0.025746     -0.002896
O	      6.31523      4.26318      8.41072         0.101946      0.082037     -0.048389
O	      8.42870      6.26706      8.29398         0.007976      0.171493      0.008160
O	      2.10604      6.44060      6.23983         0.045678      0.016585      0.098854
O	      4.24300      8.56036      6.34734        -0.024203      0.013344      0.325119
O	      4.16253      6.51893      8.47705         0.019584      0.110028     -0.172832
O	      6.27945      8.50905      8.34264         0.112451     -0.064029     -0.027160
O	      6.32358      6.41849     10.38047         0.038965     -0.225926      0.049798
O	      8.42922      8.77197     10.31519        -0.106706     -0.088478     -0.196449
