# total energy = -230.11629568 eV
 
CRYSTAL
PRIMVEC
-0.027769 6.307484 6.274602 
6.363988 -0.072007 6.318724 
4.205723 4.197823 -0.011346 
PRIMCOORD
36 1
Li	      4.20534      2.16599      2.16811         0.029897      0.032895      0.009790
Li	      8.43847     10.40056     10.54604         0.030446     -0.009152     -0.016434
Li	      6.32110      2.05679      4.33721        -0.018008      0.000608      0.017195
Li	      6.21290      2.12274      8.32914        -0.007024     -0.021975     -0.018380
Li	      8.44914      4.23980      8.30396         0.013849      0.004677     -0.024362
Li	      8.61350      6.12126      6.34450        -0.005317     -0.001496      0.000407
Li	      6.30956      4.06617      6.39278        -0.020306     -0.034515      0.011567
Li	      6.24174      4.12715     10.38169        -0.013835      0.011481     -0.009355
Li	      8.56857      8.24243      8.48278        -0.010470     -0.005291      0.004371
Sc	      8.41367      2.12732      6.26503        -0.041248     -0.031085     -0.048167
Sc	      6.40556      6.13427      8.54746         0.004904      0.026140     -0.031856
Ti	      4.23181      6.18932      6.35179         0.185326     -0.129772      0.195308
V	      6.24509      8.38167      6.31765        -0.006921     -0.092273      0.078738
Co	      2.17316      2.03253      3.97715         0.000438     -0.028157     -0.068341
Co	      6.33126     -0.03658      6.30406        -0.124603      0.050884     -0.082712
Co	      6.27752      4.17380      2.18870        -0.021459      0.002246      0.024613
Co	      4.22122      4.15148      4.16717         0.013588     -0.092179     -0.007770
Co	      8.45831      6.31938     10.37661         0.021981      0.044606     -0.021387
O	      2.15010      2.06973      2.14018         0.005943      0.019287      0.154822
O	      4.28670      4.18608      1.92591         0.059381      0.000937      0.083833
O	      4.14880      2.27748      4.19630        -0.090957      0.069167     -0.008256
O	      6.16959      4.22367      4.22786        -0.055966      0.054355     -0.070339
O	      6.39669      1.89070      6.32275        -0.012010      0.008255     -0.004638
O	      8.60641      4.11766      6.28216         0.147604      0.087122     -0.002392
O	      2.25173      4.13570      4.37466         0.026857     -0.032176      0.013806
O	      4.24493      6.11252      4.29329         0.056641     -0.043539      0.022667
O	      4.10571      4.31345      6.31898        -0.055927      0.204221     -0.016933
O	      6.15864      6.37363      6.28727        -0.213243     -0.010621      0.020769
O	      6.35378      4.19619      8.38219        -0.003764     -0.040488     -0.002306
O	      8.39809      6.25634      8.38849        -0.001454     -0.032713     -0.003463
O	      2.10956      6.23062      6.24919         0.044717     -0.003168      0.024987
O	      4.26518      8.36173      6.19176         0.052461     -0.026669      0.005746
O	      4.17738      6.34124      8.23989        -0.005652     -0.020221     -0.215440
O	      6.29759      8.38934      8.13713        -0.026304      0.046671     -0.087208
O	      6.34575      6.25092     10.60476         0.030652     -0.011882      0.049231
O	      8.42075      8.32424     10.53232         0.009781      0.003821      0.021894
