# total energy = -215.39756814 eV
 
CRYSTAL
PRIMVEC
-0.045347 6.431348 6.142482 
6.389934 -0.042455 6.139020 
4.257319 4.283047 -0.025293 
PRIMCOORD
36 1
Li	      6.26875      0.03005      5.97152        -0.112432     -0.056263      0.107723
Li	      8.42470      8.54620     12.11642         0.079338      0.166009      0.132259
Li	      8.56524      4.19049      4.23874        -0.001966     -0.021420      0.086291
Li	      8.44055      4.20599      8.12363        -0.022221      0.024549     -0.056464
Li	      8.56250      6.21940      6.11799        -0.014152     -0.232122      0.069188
Li	      6.49810      4.24789      6.10258         0.143056      0.051458      0.046745
Li	      0.01405      4.28356      4.10842         0.160362     -0.017872      0.035649
Li	      8.42897      6.45788     10.32125         0.012922     -0.017758     -0.035274
Li	      2.06829      4.27831      6.04682        -0.001484      0.007933     -0.058043
Sc	      2.16727      6.35906      8.14167         0.073914      0.241047     -0.171499
Sc	      4.14316      4.29558      4.21694        -0.192123      0.112118      0.036320
Ti	      6.48374      6.26489      8.21611         0.248623     -0.272213     -0.029750
V	      4.21369      2.21811      1.94529        -0.232410     -0.163489     -0.291924
Cu	      6.24328      2.26504      8.12763         0.009269     -0.077740      0.183132
Cu	      4.22207      6.41554      6.08771         0.017431     -0.009639     -0.143505
Ni	      6.43260      2.11120      4.18936         0.374901     -0.013661      0.524664
Ni	      6.37885      6.42585      4.16450        -0.010491     -0.021408     -0.015410
Ni	      8.51297      8.51357      8.20433        -0.056240      0.080185     -0.255210
O	      2.39491      2.05962      2.08529         0.082166     -0.135092     -0.021588
O	      4.32252      4.02799      1.99189         0.158996     -0.011243      0.041489
O	      4.27999      2.15026      3.94420         0.096661      0.054442     -0.007676
O	      6.31163      4.29398      4.05468        -0.036138     -0.290205     -0.030096
O	      6.36769      2.08242      6.25500        -0.093993      0.057189     -0.415559
O	      8.54961      4.23645      6.15576        -0.067839      0.016646     -0.000949
O	      2.15129      4.16504      4.06366         0.096580      0.106555     -0.006191
O	      4.29075      6.38896      3.95527        -0.120743      0.065721     -0.137412
O	      4.19667      4.40915      6.23604        -0.040720     -0.113824     -0.166541
O	      6.23376      6.43706      6.21437        -0.033699      0.011885      0.208645
O	      6.32341      4.38484      8.20736         0.044471      0.364619      0.099752
O	      8.36317      6.45305      8.12084        -0.375756     -0.037156      0.075222
O	      2.22590      6.42932      6.13327        -0.027805      0.012550      0.039237
O	      4.23683      8.47700      6.30183         0.071007      0.030880      0.053522
O	      4.29085      6.51631      8.13657        -0.010334      0.096617      0.295000
O	      6.19586      8.51727      8.21342        -0.044055     -0.016445     -0.177466
O	      6.34673      6.47635     10.09422         0.034773      0.129293     -0.185143
O	      8.38052      8.60346     10.15538        -0.209869     -0.122144      0.170863
