# total energy = -215.96368882 eV
 
CRYSTAL
PRIMVEC
0.014941 6.201707 6.329567 
6.391508 0.050172 6.294783 
4.325300 4.175172 -0.030845 
PRIMCOORD
36 1
Li	      6.41566      2.13718      4.17412         0.066576     -0.009505      0.009589
Li	      6.34420      2.24576      8.44603        -0.162107      0.070374      0.078767
Li	      6.42837      6.27887      4.23229        -0.149788      0.008962      0.069824
Li	      8.55175      6.34534      6.32420        -0.069457      0.021618      0.224739
Li	     10.69120      8.29479     10.38498        -0.027887     -0.069105     -0.102397
Li	      8.61272      6.25240     10.39186         0.057309     -0.021959     -0.089826
Li	      4.39976      6.21208      6.24371         0.067582     -0.019322     -0.097921
Li	      8.67436      8.21325      8.43925         0.052048     -0.167837      0.046958
Li	      6.51568      6.20083      8.36483         0.195346      0.000851     -0.041529
Sc	      6.37093      0.12238      6.31238         0.020193      0.116468     -0.090639
Sc	      2.19099      8.25969      6.27227        -0.089219     -0.067136     -0.058654
Ti	      4.34923      6.27672     10.45427         0.229236     -0.296727      0.009191
V	      6.44599      4.15567      2.16457         0.004418      0.055954     -0.056795
Cu	      4.33472      8.26718      8.43620         0.004687     -0.002305     -0.002964
Cu	      4.23779      4.20844      4.21553        -0.066618      0.210965      0.125036
Cu	      6.32751      4.25282      6.37136        -0.035815      0.043905      0.075365
Ni	      8.46345      4.28164      8.50760        -0.035967     -0.032961     -0.013861
Ni	      6.50485      8.25344      6.25251         0.043850     -0.012448     -0.050112
O	      4.22521      6.15633      4.13919         0.143919     -0.003693      0.122682
O	      6.43926      6.22588      6.32899         0.004849     -0.005973     -0.102107
O	      6.47796      4.20617      8.31017        -0.132417     -0.019871      0.086768
O	      2.03459      1.88517      2.05528         0.032064     -0.003040      0.032478
O	      4.34254      4.06336      2.16379         0.126506     -0.071671     -0.119666
O	      4.28902      2.04507      4.09507         0.006641      0.007438     -0.106541
O	      6.50250      4.19467      4.10769         0.159119      0.002926     -0.041875
O	      6.48038      2.15426      6.26348        -0.000632     -0.056287     -0.044947
O	      8.58399      4.22090      6.20816         0.051791      0.026907     -0.181483
O	      2.25414      4.11881      4.24023        -0.125636     -0.074648      0.073890
O	      4.34077      4.17998      6.15784        -0.030529     -0.025254     -0.016709
O	      8.61518      6.21501      8.43066        -0.018188      0.196256     -0.130214
O	      2.07675      6.20423      6.41095        -0.021170      0.008625      0.044356
O	      4.32526      8.32149      6.40856         0.008031     -0.021972      0.145454
O	      4.16607      6.29547      8.52641        -0.002160      0.035194      0.028750
O	      6.59221      8.54042      8.29876        -0.060012     -0.058148      0.115136
O	      6.23767      6.26007     10.56826        -0.250956      0.026889      0.034157
O	      8.59978      8.50426     10.52493         0.004391      0.206530      0.025100
