# total energy = -217.03544560 eV
 
CRYSTAL
PRIMVEC
0.039782 6.416862 6.131144 
6.378753 -0.008005 6.178933 
4.247453 4.305010 -0.000465 
PRIMCOORD
36 1
Li	      6.32690      4.33749      2.12326         0.009340     -0.035842      0.060108
Li	      4.36252      2.11999      2.20007         0.043271      0.013138     -0.085430
Li	      4.25124      0.29953      3.99102        -0.053306     -0.054196     -0.005358
Li	      6.11159      2.12510      4.04953         0.141471      0.077403     -0.013220
Li	      2.12757      4.27995      2.12592        -0.013662      0.056359     -0.016280
Li	      2.37033      2.22301      3.88923        -0.043185      0.012585      0.110664
Li	      4.16236      4.06005      3.99323         0.038335      0.116700      0.000673
Li	      4.27168      2.17615      5.93339        -0.041564      0.090649      0.082943
Li	      6.39186      6.51666      8.32176         0.002532      0.003556     -0.023198
Sc	      4.20269      6.54554      6.18976         0.095030     -0.152961     -0.008842
Sc	      8.46319      8.56287      8.34082         0.002554      0.030790     -0.174596
Ti	     10.40898      4.33206      6.22717        -0.163850      0.028402      0.083845
V	      6.42211      4.46157      6.07200         0.104002      0.162480     -0.169999
Cu	      8.43113      2.16221      6.21521         0.037453      0.052555      0.002494
Cu	      4.28191      6.39689      2.07016        -0.063105     -0.054863      0.022121
Cu	      2.15176      6.38606      4.09292        -0.108988     -0.026701     -0.052477
Cu	      2.15548      4.30296      6.14641         0.050065     -0.319839      0.004062
Ni	      0.07857      4.29539      4.06259        -0.026374     -0.028574     -0.088523
O	      2.11069      4.35603      4.21662        -0.004025     -0.166387      0.016735
O	      8.60105      6.44455      8.32479        -0.042770     -0.035929     -0.218036
O	      1.99998      2.10832      1.96465         0.079644      0.000581      0.012092
O	      4.26294      4.37601      1.92981        -0.051458     -0.185322     -0.166112
O	      4.24405      2.18263      4.06132         0.016958      0.035277     -0.031744
O	      6.49779      4.17393      4.36782         0.017793     -0.000983      0.061436
O	      6.40825      2.01522      6.22921        -0.110929     -0.078890     -0.182127
O	      8.50962      4.39779      6.17711         0.176003      0.054573      0.031817
O	      4.21052      6.50419      4.06265         0.162212     -0.042437      0.073357
O	      4.58414      4.32995      6.17166        -0.002524     -0.037228      0.016652
O	      6.38637      6.23567      6.14453         0.079843      0.016599      0.003052
O	      6.43044      4.13468      8.06905         0.054802      0.195296     -0.074497
O	      2.11380      6.29390      6.09270        -0.051616      0.127387      0.235711
O	      4.14284      8.66380      6.16642         0.019922      0.067205      0.147172
O	      4.29186      6.33435      8.16131         0.004739      0.009371      0.041543
O	      6.47628      8.50216      8.05823        -0.101624     -0.004736      0.101150
O	      6.50066      6.36736     10.39040        -0.168404      0.017104      0.074236
O	      8.62285      8.45052     10.36814        -0.088585      0.056876      0.128579
