# total energy = -218.22172758 eV
 
CRYSTAL
PRIMVEC
0.012175 6.269445 6.390051 
6.310949 0.011163 6.390854 
4.208071 4.181059 0.006718 
PRIMCOORD
36 1
Li	      6.22222      0.02724      6.31528        -0.067050     -0.058719      0.017939
Li	      6.33113      4.15156      2.20350         0.023620     -0.040855     -0.012549
Li	      4.25461      8.32004      8.58031        -0.022040     -0.013833     -0.038364
Li	      6.20714      2.09861      4.20948        -0.013065     -0.044202     -0.070311
Li	      8.40893      6.23994      6.38768        -0.027693     -0.053923      0.001223
Li	      6.34022      4.22395      6.35574         0.041325      0.040531     -0.024758
Li	      8.42537      6.25028     10.59321        -0.005728     -0.008839     -0.040157
Li	      4.23459      6.30918      6.44712         0.000556      0.039535      0.017176
Li	      6.30633      6.27826      8.55966         0.007676     -0.007867      0.060151
Sc	      6.36951      6.22328      4.28349        -0.062277      0.049326     -0.003492
Sc	      6.19712      8.37594      6.42145        -0.105541      0.047539      0.089066
Ti	      4.18902      4.22010      8.39035        -0.085576      0.189072     -0.174212
V	      8.32220      8.28922     12.67475        -0.013216     -0.088959      0.133935
Cu	      4.27319      6.27318     10.65599        -0.092342     -0.118207     -0.008607
Cu	      4.21219      6.28040      2.14933         0.063525     -0.105559     -0.147054
Cu	      8.41643      4.28200      8.48247         0.033915      0.007246     -0.209608
Cu	      4.27346      4.14057      4.22817         0.181411     -0.058713      0.255181
Cu	      6.32191      4.23948     10.63357         0.030074     -0.000394      0.023175
O	      8.42256      3.98664      6.27554        -0.059373      0.141092      0.248210
O	      6.30807      4.14348      8.57084        -0.019042      0.148997     -0.022882
O	      6.26327      6.15011     10.64962         0.160287     -0.016982      0.032769
O	      2.06973      2.20262      2.00230         0.171251      0.074649      0.038388
O	      4.10150      4.29856      2.20944        -0.043287     -0.028925     -0.205853
O	      4.22815      1.98735      4.24134         0.047870      0.308330      0.039655
O	      6.23242      4.18431      4.24711        -0.037826     -0.024036     -0.079586
O	      6.50677      2.07858      6.49734        -0.033848     -0.000062     -0.102362
O	      2.31781      4.19913      4.36727         0.002470      0.021025     -0.033679
O	      4.25021      6.43749      4.14738         0.036260     -0.054185      0.194813
O	      4.19311      4.22996      6.54395        -0.007508      0.016567      0.287514
O	      6.29384      6.35106      6.32303         0.023763      0.025942     -0.097241
O	      8.51926      6.34608      8.51737        -0.201068      0.056613      0.000921
O	      2.12987      6.45703      6.42302         0.014551     -0.098240      0.075774
O	      4.10546      8.35687      6.40126         0.039930      0.011953      0.036734
O	      4.25343      6.09568      8.64327        -0.051372     -0.220961     -0.158605
O	      6.48962      8.35634      8.48833         0.117872     -0.043093     -0.050417
O	      8.29679      8.33834     10.84235        -0.048507     -0.091864     -0.072886
