# total energy = -224.53131740 eV
 
CRYSTAL
PRIMVEC
0.006893 6.149858 6.754152 
6.085048 0.024894 6.736963 
4.072043 4.102009 -0.001090 
PRIMCOORD
36 1
Li	      8.08462      2.15435      6.68322        -0.014186      0.007489     -0.040735
Li	      2.10487      6.13867      8.86815        -0.002317      0.010662     -0.013923
Li	      8.11331      4.11257      4.75847         0.009257      0.013548      0.000123
Li	      8.04789      4.05362      8.66962        -0.042177     -0.034878     -0.019827
Li	      4.03629      4.08251      4.70856         0.044056      0.000937      0.008418
Li	      4.16889      2.04814      6.82060         0.023454      0.044051      0.021756
Li	      6.09120      4.03587      6.69379         0.004895      0.028695     -0.045819
Li	      2.03735      6.13131      4.64567         0.015842      0.021459     -0.015284
Li	      4.02080      4.15037      8.77469         0.053555     -0.018005      0.000692
Sc	      6.17710      6.07136      4.55769        -0.135159     -0.062179      0.037854
Sc	     10.07006      8.31514     11.27918         0.058724     -0.002965     -0.044980
Ti	      6.01021      6.12305      8.87636        -0.123376     -0.311758      0.181334
V	      3.93688      5.95685      2.26293         0.097317      0.245997      0.219787
Fe	      3.99581      2.08523      2.23213        -0.106793      0.093348     -0.080765
Co	      6.16882      8.28048     11.06219         0.004378      0.086891      0.030467
Cu	      6.11009      0.05649      6.73526         0.087858      0.111164     -0.098906
Cu	      3.97160      6.09318      6.75420         0.212259      0.256015     -0.065793
Ni	      2.07262      4.12958      6.73617        -0.073649     -0.257840      0.032042
O	      8.30116      4.18514      6.71172        -0.167701     -0.022433      0.008984
O	      2.02623      2.04873      2.42831         0.001199     -0.025698     -0.004253
O	      4.05860      4.20301      2.37560        -0.005219     -0.285842      0.034174
O	      4.18370      2.07138      4.26175         0.123081      0.040036      0.140693
O	      6.12045      3.98147      4.57371         0.030618     -0.014044      0.041892
O	      6.18914      2.09624      7.23099         0.007630     -0.007050     -0.219155
O	      1.95309      4.01008      4.68188         0.024339      0.040260     -0.031182
O	      4.08019      6.21475      4.19780        -0.010793     -0.029710     -0.078505
O	      4.05576      4.16939      6.73153         0.102428     -0.076173      0.042513
O	      6.07452      6.13540      6.85864         0.099320     -0.124446     -0.000927
O	      6.08815      4.22052      9.10079        -0.013297      0.203454     -0.022548
O	      8.24875      6.17753      8.96147        -0.197502      0.010567     -0.040714
O	      1.98794      6.14920      6.73537        -0.054962      0.114103      0.067583
O	      4.04414      8.18936      6.79593        -0.157891     -0.020815      0.042292
O	      4.14894      6.23534      8.96695         0.176759     -0.045100      0.066466
O	      6.03291      8.14701      8.90551         0.132062      0.037632      0.003635
O	      6.15847      6.30060     10.89773         0.005672     -0.012082     -0.211652
O	      8.02327      8.25176     11.26919        -0.209682     -0.015291      0.054262
