# total energy = -223.36021155 eV
 
CRYSTAL
PRIMVEC
0.051688 6.317797 6.367447 
6.304939 0.028890 6.390285 
4.216799 4.240625 0.005740 
PRIMCOORD
36 1
Li	      6.30811     10.40653      8.46319        -0.100048     -0.238004      0.069576
Li	      4.37109      8.49366      8.43243         0.228894      0.046403      0.041243
Li	      6.25564      2.19051      4.16126        -0.048206      0.074903     -0.186213
Li	      6.34638      2.09819      8.42102        -0.029150      0.012562     -0.003978
Li	      4.27549      4.16830      4.24089         0.091663     -0.070035      0.120623
Li	      4.26423      2.17904      6.39865         0.084039      0.115724      0.034026
Li	      6.38961      8.46345      6.59630         0.104303     -0.053393      0.167066
Li	      8.30727      8.46516      8.44142        -0.201615     -0.021854     -0.160515
Li	      6.35755      6.50771      8.35128         0.012281      0.181497     -0.077500
Sc	      2.13264      2.10090      4.24916        -0.007572     -0.143279      0.041631
Sc	      6.31272      4.30141     10.57740         0.020226     -0.011548     -0.321012
Ti	      8.50599      6.42295     10.56379         0.142550     -0.010072     -0.798646
V	      4.16838      0.10634      4.18510        -0.059398      0.010616     -0.055486
Fe	      8.49031      4.23995      8.41516        -0.226684      0.215403     -0.234066
Co	      6.23113      4.21619      6.46030         1.287119      0.213702     -0.150092
Cu	      0.04962      0.05384      0.06642        -0.063683     -0.138895     -0.073738
Cu	      2.07647      2.05329      0.12957        -0.239479      0.218583      0.006856
Cu	      4.24245      6.31466      6.46898        -0.073765     -0.433033     -0.114721
O	      6.35303      8.47175      8.49937        -0.044677     -0.049362      0.044767
O	      2.13335      2.23383      2.19389         0.028499     -0.258728     -0.122889
O	      4.12790      4.24551      1.97563         0.279923      0.048500     -0.024365
O	      4.17111      2.00690      4.33809        -0.053250      0.002453      0.048199
O	      6.43067      4.27717      4.31909        -0.220292      0.043508      0.557875
O	      6.42729      2.19310      6.42842        -0.090960      0.716310     -0.022631
O	      8.29136      4.28331      6.32158        -0.385758     -0.237284      0.053503
O	      2.11596      4.29007      4.19209        -0.056845      0.027416      0.044706
O	      4.13336      6.38237      4.13160        -0.201595      0.127001     -0.105591
O	      4.39345      4.28052      6.38479        -0.232911      0.410202      0.116065
O	      6.20720      6.31045      6.36358        -0.234348     -0.553091      0.030603
O	      6.46273      4.27939      8.49689        -0.306729     -0.027242     -0.481143
O	      8.38969      6.27405      8.68104         0.048096      0.073705      0.509719
O	      2.26185      6.25167      6.21713         0.295292      0.104703      0.277609
O	      4.11087      8.33823      6.34125         0.136897     -0.279608      0.093606
O	      4.31555      6.27705      8.82582         0.011345      0.029050      0.336542
O	      6.36792      6.35933     10.84059         0.150696     -0.018937      0.126015
O	      8.47137      8.38499     10.58359        -0.044858     -0.127875      0.212354
