# total energy = -224.83930956 eV
 
CRYSTAL
PRIMVEC
-0.027337 6.462247 6.250698 
6.378560 -0.039210 6.262281 
4.218282 4.281828 0.007938 
PRIMCOORD
36 1
Li	     10.48550      4.35428      6.28668         0.081407     -0.045646      0.006945
Li	      8.41649      2.17992      6.33032         0.086740     -0.132182      0.039991
Li	      4.12279      2.26807      2.14703         0.067272      0.017696      0.045698
Li	      4.34849      6.50770     10.42537        -0.006194      0.040168     -0.042116
Li	      6.30961      8.34942     10.50741        -0.039133     -0.050517     -0.036660
Li	      4.19390      6.28106      2.14512        -0.004669     -0.077966      0.104612
Li	      2.36672      4.16365      1.99469         0.006600     -0.083096      0.084391
Li	      4.18125      4.31615      4.10695        -0.007342      0.006370     -0.023537
Li	      8.43758      6.48354     10.39602         0.046101     -0.011234     -0.004682
Sc	      6.25232      4.36570      2.23210        -0.048619      0.307679     -0.205804
Sc	      6.31855      4.30573     10.33458         0.076521     -0.274913      0.238932
Ti	      6.48812      4.10484      6.20744         0.056091     -0.022510     -0.279539
V	      2.06458      4.41933      6.20991        -0.532060      0.355372     -0.324508
Fe	      8.40627      8.53968      8.40503        -0.018042      0.027965      0.138612
Co	      4.24855      2.12090      6.22851        -0.644728      0.228195     -0.191036
Ni	      4.27335      6.39866      6.23438        -0.211704      0.270628     -0.165404
Ni	      6.31493      6.44665      8.38327        -0.034080      0.040815      0.005257
Ni	      2.15460      2.14503      4.13552        -0.164517      0.108655      0.008719
O	      2.16279      2.09767      2.10373        -0.060147     -0.168090     -0.379879
O	      4.28707      4.27204      2.07133        -0.000189      0.016267     -0.083654
O	      4.15989      2.12741      4.36280         0.550732     -0.099735      0.433019
O	      6.30383      4.33684      4.30722         0.063121     -0.215325      0.654330
O	      6.29202      2.26313      6.24453        -0.423876      0.182270     -0.025653
O	      8.32031      4.23812      6.28487        -0.141058      0.548665     -0.036908
O	      2.13524      4.27325      4.38132        -0.017492      0.107577      0.251104
O	      4.29953      6.51503      4.22488        -0.123880      0.134833      0.011296
O	      4.12622      4.31252      6.28898         0.204029     -0.768775      0.040258
O	      6.36545      6.51091      6.27295         0.825694     -0.088740      0.097564
O	      6.24406      4.34124      8.21775         0.020948     -0.065157     -0.324301
O	      8.39658      6.52195      8.16538         0.154677      0.015940     -0.232913
O	      2.15681      6.23114      6.27573        -0.024697     -0.385803     -0.009479
O	      4.45868      8.52652      6.25214         0.301210      0.066316     -0.035712
O	      4.20506      6.31689      8.27824         0.019830     -0.169945      0.051007
O	      6.37060      8.56517      8.17326         0.058468      0.040726     -0.017403
O	      6.37748      6.34548     10.41585        -0.037308      0.073454      0.146290
O	      8.50263      8.49958     10.35285        -0.079707      0.070042      0.061168
