# total energy = -228.20024401 eV
 
CRYSTAL
PRIMVEC
0.021588 6.328327 6.306655 
6.304097 -0.000440 6.328771 
4.170494 4.201253 0.032588 
PRIMCOORD
36 1
Li	      0.09948      0.11933      0.05241         0.034219      0.043323      0.025192
Li	      2.05609      2.04290      0.06845         0.053841      0.046282     -0.015078
Li	      2.03662      0.07874      2.04060         0.003177     -0.017937     -0.022091
Li	      2.12785      2.09566      4.12680        -0.014476      0.052042     -0.021341
Li	      4.27872      4.12854      4.10241        -0.020647     -0.020234     -0.018409
Li	      8.45317      6.25377      6.37776         0.001040      0.033015      0.050385
Li	      6.33470      4.31660     10.56065         0.009692     -0.020462      0.023694
Li	      8.31357      6.28191     10.58769        -0.026101      0.008454      0.005845
Li	      6.26665      6.32213      8.43265         0.011010     -0.022538     -0.004907
Sc	      2.10299      4.17620      6.20879         0.036925      0.047361     -0.065414
Sc	      8.37163      8.34700      8.52165        -0.015837     -0.096701     -0.012858
Ti	      4.25382      0.01350      4.28195         0.119640     -0.083398      0.059715
V	      4.17542      6.30716      6.07578        -0.070788     -0.042330      0.057696
Fe	      2.14526      4.23321      2.22105         0.049531     -0.072538     -0.148759
Co	      6.34689      2.12838      8.39738        -0.081195     -0.017450     -0.380086
Co	      6.29837      4.21821      6.33270        -0.013828     -0.009393      0.055427
Cu	      4.19777      8.39075      8.41390         0.075099      0.055073     -0.098031
Cu	      6.26393      2.10444      4.28530         0.047143     -0.027117     -0.042114
O	      2.05400      2.22017      2.13075        -0.450053     -0.055504     -0.031771
O	      4.13115      4.36775      2.08455         0.095258      0.516181     -0.036249
O	      4.22800      2.01006      4.08355        -0.051164      0.002490      0.088871
O	      6.34802      4.11402      4.40373         0.019993      0.095914      0.067374
O	      6.29558      2.29351      6.45264        -0.010199     -0.020673      0.805294
O	      8.22293      4.27747      6.28690        -0.024180      0.006174     -0.144587
O	      2.07096      4.22145      4.16927        -0.031915     -0.013869      0.234889
O	      4.17853      6.34699      4.32858         0.033581     -0.028195     -0.389668
O	      4.28408      4.29979      6.32988         0.038269     -0.024644      0.010376
O	      6.15449      6.21466      6.30975         0.067839     -0.065259      0.028683
O	      6.36204      4.15987      8.33082        -0.064467     -0.331910     -0.082694
O	      8.46972      6.27305      8.50063         0.467676      0.077652     -0.138465
O	      2.24230      6.25167      6.31007        -0.034242     -0.004812      0.001037
O	      4.21030      8.25737      6.42706        -0.085933      0.025237     -0.031300
O	      4.19802      6.21527      8.53557         0.008231     -0.058335      0.161516
O	      6.33698      8.33391      8.33150        -0.117397      0.025740     -0.062427
O	      6.17251      6.40112     10.65437        -0.131128     -0.093111     -0.016884
O	      8.37923      8.54817     10.57196         0.071389      0.091473      0.087138
