# total energy = -228.12853717 eV
 
CRYSTAL
PRIMVEC
-0.015735 6.198898 6.431899 
6.224686 -0.019840 6.435975 
4.142290 4.128194 -0.006349 
PRIMCOORD
36 1
Li	      1.99839      1.94007      0.14580         0.009298     -0.020567      0.024889
Li	      1.99326      0.06202      2.08721        -0.056459     -0.021267     -0.007512
Li	      6.26319      8.24483     10.75084         0.001636      0.012442      0.038949
Li	      4.19715      6.04468      2.17811         0.062645      0.008966     -0.004286
Li	      2.17004      4.04930      2.24568         0.024010     -0.036519      0.102755
Li	      2.01272      2.04143      4.15632        -0.023375     -0.012386     -0.026445
Li	      8.31751      6.17432      6.47309         0.030410     -0.028795      0.017964
Li	      2.12851      6.12833      4.33549        -0.036030      0.035013      0.032441
Li	      4.05454      6.11049      6.37829         0.038042      0.059143      0.013467
Sc	      6.19265      3.98902      6.45256         0.180251      0.041139     -0.024819
Sc	      4.21260      8.13515      4.31850        -0.039568      0.002639      0.078406
Ti	      6.35614      6.30214      8.53747         0.251434     -0.000143     -0.147557
V	      4.11386      0.07111      4.29099         0.033257     -0.050226      0.147591
Fe	      3.95391      2.11671      2.07888         0.150526      0.116918     -0.170637
Co	      0.03045      0.05719      0.05971        -0.126454      0.343636     -0.028698
Co	      4.13051      4.19335      8.56669         0.054436      0.033823      0.064202
Ni	      4.11997      4.17522      4.22774         0.074763     -0.062333      0.016433
Ni	      2.10146      4.14506      6.39304        -0.043804      0.028657      0.061289
O	      2.11430      2.06552      2.10951        -0.244403      0.004669      0.042697
O	      4.13522      4.05585      2.16765        -0.047821     -0.071343     -0.018642
O	      4.15935      1.92314      4.13642         0.040486      0.055128      0.014518
O	      6.26946      4.11810      4.39181         0.035065     -0.025164      0.012591
O	      6.22293      1.97207      6.45288        -0.049316     -0.117978     -0.066993
O	      8.40601      4.12814      6.22941        -0.118127     -0.058069     -0.109472
O	      2.09538      4.09619      4.32989        -0.081427     -0.018754     -0.081881
O	      4.12374      6.17624      4.33228        -0.013098      0.073033      0.077054
O	      4.13816      4.11666      6.58060         0.046573     -0.012710     -0.026470
O	      6.23083      6.14239      6.63869         0.037307     -0.025944      0.248508
O	      6.12743      4.22986      8.59190        -0.042670      0.091433      0.076497
O	      8.21834      6.35562      8.64559        -0.246557     -0.011627     -0.079638
O	      1.84467      6.18349      6.38538         0.177662      0.056424     -0.099853
O	      4.15881      8.38901      6.46012        -0.214330     -0.139108     -0.038392
O	      4.18245      6.19009      8.63245         0.053471     -0.100498     -0.060569
O	      6.28920      8.23676      8.52252         0.089026     -0.193087      0.095049
O	      6.11435      6.18241     10.56076        -0.008723      0.064615     -0.032282
O	      8.28887      8.45800     10.50098         0.001865     -0.021161     -0.141154
