# total energy = -228.21490513 eV
 
CRYSTAL
PRIMVEC
0.025017 6.287356 6.549454 
6.188704 -0.063457 6.638713 
4.086639 4.211649 -0.002789 
PRIMCOORD
36 1
Li	      8.13233      2.22060      6.65757         0.123586     -0.076483      0.064262
Li	      2.03877      0.05119      2.12182        -0.007122     -0.014531     -0.045149
Li	      8.27000      4.08134      4.65564        -0.026420     -0.006387     -0.064567
Li	      6.24086      1.95867      4.67675        -0.022127      0.038123     -0.076355
Li	      6.19674      2.09290      8.62032         0.057536     -0.035941      0.090379
Li	      8.19251      4.29155      8.58771         0.026358     -0.006554      0.093834
Li	      8.32194      6.12839      6.79264        -0.121405      0.122680      0.020175
Li	      8.19797      6.30195     10.84191         0.038835     -0.036281     -0.012789
Li	      6.23982      6.18184      8.81695        -0.027589      0.065904     -0.019161
Sc	      6.21695      4.22669     10.90728         0.044035     -0.078158      0.159594
Sc	      8.15168      8.21375      8.85328        -0.264531      0.049766     -0.119698
Ti	      4.01976      6.23707      6.61236        -0.046703     -0.160637      0.135393
V	      4.19580      4.16083      4.23898        -0.219662     -0.020061      0.101902
Fe	      4.08748      8.29284      8.76765         0.177975      0.052930     -0.010164
Co	      6.18187      0.10440      6.47440         0.147012      0.055012      0.072575
Co	      6.31439      4.06503      6.70097        -0.224674      0.106597     -0.099985
Co	      6.15905      8.33287      6.58122         0.024511      0.034527      0.043569
Ni	      2.10104      2.07182      4.38634         0.008640      0.025935     -0.010666
O	      2.19278      2.07147      2.31781        -0.201061      0.038320     -0.111813
O	      4.09765      4.22265      2.48853         0.006848      0.018457      0.028683
O	      4.15634      2.28681      4.29119         0.125545      0.014668      0.042586
O	      5.97665      4.22937      4.50053         0.157252     -0.160004      0.364276
O	      6.21755      2.10058      6.64673        -0.023415      0.098614     -0.002068
O	      8.27469      4.17560      6.63032        -0.270256     -0.034028     -0.009860
O	      2.22056      4.13232      4.63542         0.067908      0.075763     -0.118555
O	      4.09550      6.14313      4.55005        -0.082544      0.024568     -0.033153
O	      4.05120      4.24524      6.56286         0.339571     -0.023446     -0.009908
O	      6.04928      6.33808      6.46846         0.014391     -0.343376      0.108587
O	      6.17159      4.14144      8.87999         0.139842     -0.029817     -0.492166
O	      8.20925      6.28131      8.79578         0.052549      0.002793     -0.031587
O	      2.08276      6.10984      6.59792         0.055622      0.192173     -0.018160
O	      4.19031      8.25354      6.54733        -0.172007      0.042441     -0.105654
O	      4.10562      6.28053      8.53267         0.010705     -0.086172     -0.145717
O	      6.04375      8.38417      8.51670         0.106814     -0.027006      0.071797
O	      6.21270      6.19355     11.01682        -0.063260      0.065266      0.122322
O	      8.27209      8.36558     10.88252         0.047241      0.014344      0.017238
