# total energy = -232.13864610 eV
 
CRYSTAL
PRIMVEC
0.006858 6.176638 6.310011 
6.430639 -0.032623 6.348809 
4.273705 4.130890 -0.007950 
PRIMCOORD
36 1
Li	      4.29660      4.14078      0.07509        -0.023283      0.050654      0.054755
Li	      6.28541      4.15274      2.11128        -0.046816      0.029560      0.033452
Li	      4.26122      2.21501      2.09426        -0.032456      0.075026      0.029372
Li	      2.19903      4.15611      2.24878         0.114838      0.047210      0.029498
Li	      4.17854      4.18488      4.14470        -0.062560     -0.012176     -0.049523
Li	      6.32488      4.12395      6.37352        -0.040253     -0.027668     -0.042871
Li	      0.09061      4.05846      4.17656        -0.012349      0.058776      0.046538
Li	      2.26886      6.08035      4.22520         0.059874     -0.030367      0.081127
Li	      4.26875      6.18564      6.23230         0.027442      0.032447      0.054999
Sc	      2.25094      8.19207      6.43060         0.019535     -0.009684     -0.001427
Sc	      6.34307      8.29778      6.33240         0.046225     -0.043691     -0.040272
Ti	      6.43197      2.05555      4.23519         0.182679     -0.043065      0.345931
V	      4.28520      6.17970     10.46456        -0.054289     -0.060691     -0.169513
Fe	      6.25240      6.22982      4.16165         0.216041     -0.280190      0.197472
Co	      4.33563      4.04853      8.42840         0.068946     -0.022111      0.098190
Co	      4.24226      6.16401      2.15387        -0.156978     -0.209091     -0.083191
Co	      4.29536      2.02020      6.29935        -0.078332      0.024046      0.475322
Co	      6.49084      6.03355      8.39493        -0.080281     -0.252288     -0.011582
O	      2.08346      2.08669      2.17179         0.039067      0.079840      0.000006
O	      4.26077      4.32981      2.09066        -0.014948     -0.029258      0.031247
O	      4.35590      2.02104      4.28540         0.051047     -0.072142     -0.335293
O	      6.56125      4.08666      4.17034        -0.017930      0.001689     -0.012009
O	      6.46936      2.06417      6.16727         0.157099     -0.004488     -0.176454
O	      8.59044      4.20213      6.09217         0.087292      0.153581      0.016876
O	      2.13273      4.03979      4.28364        -0.029164      0.056468     -0.008546
O	      4.35312      6.15214      4.18949        -0.244702      0.041063     -0.028384
O	      4.24165      3.88390      6.35037        -0.019391     -0.021588     -0.160377
O	      6.40757      6.13306      6.29653        -0.013598      0.084639      0.032516
O	      6.37187      3.94010      8.45709        -0.674288      0.351454     -0.036480
O	      8.60926      6.11198      8.24196         0.223050      0.077919     -0.021201
O	      2.21180      6.18685      6.31833        -0.005242     -0.008005      0.060286
O	      4.26819      8.26312      6.38422         0.033511      0.082137      0.033432
O	      4.37873      6.12773      8.64402        -0.202083     -0.035687     -0.050527
O	      6.46184      8.20811      8.54214         0.351208     -0.130691     -0.157525
O	      6.34566      6.28069     10.47324         0.104990      0.112695     -0.100333
O	      8.43454      8.29789     10.61395         0.026098     -0.066324     -0.135511
