# total energy = -222.49808357 eV
 
CRYSTAL
PRIMVEC
0.046795 6.130826 6.510255 
6.351941 0.031118 6.527008 
4.270594 4.133290 -0.015387 
PRIMCOORD
36 1
Li	      2.40044      8.19969      6.47756        -0.049614      0.023039     -0.035332
Li	      4.40390      8.17819      8.49909        -0.042245      0.007538     -0.046071
Li	      4.24299      6.17221     10.69996        -0.014836      0.006981     -0.045942
Li	      6.37815      8.26990     10.63058        -0.016197      0.004462     -0.019852
Li	      8.41487      4.16436      8.72188        -0.009339     -0.032872     -0.009349
Li	      4.29320      8.21605      4.43128        -0.063032     -0.029185      0.028578
Li	      6.27688      8.25016      6.67292         0.006953     -0.013620      0.052718
Li	      8.41437      8.32333      8.69667         0.043820     -0.014778      0.002839
Li	      6.36203      6.16224      8.72842        -0.051554     -0.025267     -0.010263
Sc	      4.28747      6.19828      2.25840         0.015128      0.089847      0.060100
Sc	      6.43488      4.11567      6.56403        -0.012068     -0.081748     -0.023602
Ti	      8.48088      6.23762      6.58294         0.033000      0.077037     -0.002578
V	      8.31599      6.22918     10.93005         0.177514     -0.036175      0.091819
Fe	      2.20803      2.11397      4.32302        -0.070750      0.025209      0.047459
Cu	      6.48774     10.22673      8.69901        -0.038387      0.151182     -0.064820
Ni	      4.22013      4.03593      0.06598         0.065470     -0.002265     -0.010168
Ni	      4.31027      4.09390      4.32378         0.019695     -0.002072     -0.012383
Ni	      4.24926      6.22705      6.57058         0.023262     -0.055431     -0.068004
O	      4.10675      6.15507      8.59842         0.007111     -0.055563      0.127601
O	      6.43252      8.38064      8.67554         0.028444     -0.092119     -0.037380
O	      2.13404      1.92086      2.32862        -0.045841      0.015629     -0.048646
O	      4.50624      4.09503      2.15830         0.009067     -0.017194      0.026943
O	      4.18088      2.07782      4.58842         0.086620     -0.113794      0.126398
O	      6.37149      4.24634      4.49342         0.090391     -0.083984      0.137059
O	      6.22204      2.02508      6.62662        -0.103278      0.089928      0.055294
O	      8.51412      4.23896      6.53509        -0.100071      0.104956      0.064263
O	      2.25205      4.18878      4.19200        -0.079238      0.112872      0.016704
O	      4.28343      6.14906      4.35813         0.117506      0.094150     -0.098843
O	      4.29898      4.05782      6.49216         0.064675     -0.258693      0.037898
O	      6.48038      6.22262      6.49549         0.191442     -0.001521     -0.063942
O	      6.42050      4.09443      8.60944        -0.032376     -0.006734     -0.067284
O	      8.53448      6.17003      8.61583         0.011591      0.042166     -0.062669
O	      2.14307      6.11983      6.18577        -0.043275      0.059548     -0.136263
O	      4.29921      8.21132      6.43556        -0.025350      0.002717      0.001211
O	      6.56933      6.14726     10.81563        -0.205488      0.007985     -0.015844
O	      8.53511      7.96257     10.76825         0.011249      0.007767      0.002348
