# total energy = -221.05537100 eV
 
CRYSTAL
PRIMVEC
0.057663 6.228197 6.570169 
6.203457 0.012263 6.620270 
4.136376 4.183820 0.008726 
PRIMCOORD
36 1
Li	      6.28240      6.21512     13.00202        -0.048873      0.049257     -0.051489
Li	      8.32037      8.44397     13.01479        -0.014362      0.055648     -0.002591
Li	      2.12427      6.19736      8.66759        -0.023106      0.007503      0.113615
Li	      8.42855     10.26403     11.10806        -0.032616      0.067531     -0.048688
Li	      6.44885      8.39227     10.96356        -0.032682      0.055174     -0.016915
Li	      8.33177      4.17544      8.58710         0.015175     -0.028796     -0.038092
Li	      6.32967      4.11134      6.51983         0.041624     -0.026975     -0.029153
Li	      8.25918      6.34564     11.15174        -0.029906     -0.032961     -0.023126
Li	      8.25568      8.37763      9.05900        -0.034646      0.028147     -0.004619
Sc	      6.17286      6.18467      4.40294         0.079438     -0.069467     -0.080752
Sc	      8.32196      6.14498      6.60027         0.135912     -0.029887     -0.063157
Ti	      6.21435      2.28601      8.69329        -0.049562      0.183160     -0.029025
V	      4.21424      8.29109      8.74986        -0.102374      0.040995      0.279373
Fe	      4.13393      4.17922      4.37338        -0.275678      0.018752     -0.055711
Cu	      6.20974      8.40248      6.63185         0.068952     -0.110087     -0.133066
Cu	      4.12172      6.21402      6.67851        -0.004568      0.054780      0.011243
Ni	      6.19134      4.20386     10.96041         0.133210     -0.164302      0.051113
Ni	      6.28747      6.24030      8.89105         0.083683     -0.037460      0.015693
O	      2.20200      6.17141      6.64180         0.074468      0.057652     -0.017463
O	      8.44426      8.32892     11.01087        -0.407466     -0.043596      0.050956
O	      2.03057      2.08958      2.29707        -0.067051     -0.007316     -0.081988
O	      4.09459      4.00726      2.38531         0.016885      0.068287     -0.311057
O	      4.11425      2.16673      4.37966        -0.004270     -0.077067      0.086687
O	      6.06630      4.17410      4.47476         0.138649      0.087696      0.070573
O	      6.24813      2.07884      6.81998        -0.011642      0.016755      0.149905
O	      8.30731      4.22985      6.57048        -0.051078      0.022163      0.042910
O	      1.98821      4.13223      4.56618         0.247501      0.006422     -0.067538
O	      4.11609      6.25543      4.14582        -0.043787     -0.094183     -0.188393
O	      4.04816      4.23981      6.38407         0.130075      0.016061      0.275887
O	      6.16661      6.28800      6.61200        -0.132505     -0.011888      0.094103
O	      6.23146      4.13449      8.80507         0.043301     -0.363242     -0.055327
O	      8.41456      6.28624      8.68012         0.173820     -0.032566     -0.100413
O	      4.23304      8.30128      6.79099        -0.110540     -0.102493     -0.132120
O	      4.19175      6.49290      8.94977        -0.079112     -0.135144      0.025936
O	      6.17407      8.30629      8.68454         0.090442      0.100306      0.169457
O	      6.28681      6.09756     10.90691         0.082685      0.431138      0.093232
