# total energy = -222.44114247 eV
 
CRYSTAL
PRIMVEC
0.009061 6.300148 6.249268 
6.473413 0.019465 6.239038 
4.329688 4.206833 -0.000932 
PRIMCOORD
36 1
Li	      2.28674      8.34754      6.21465         0.017610      0.010968     -0.005400
Li	      4.43833      8.31088      8.40307         0.033971     -0.076517      0.002144
Li	      6.42806      8.37733     10.24492         0.027632     -0.091935     -0.028341
Li	      2.18024      4.19791      2.24405        -0.023725     -0.061156     -0.014106
Li	      2.19765      2.18060      4.09461        -0.000279      0.008305     -0.001584
Li	      6.40000      8.47395      6.27355         0.033714     -0.009004      0.066902
Li	      4.28373      6.41233      6.22224        -0.003825      0.016018      0.011825
Li	      8.55932      8.47234      8.42146        -0.082810      0.029499      0.046823
Li	      6.36586      6.46503      8.40174        -0.048838      0.022477      0.035107
Sc	      4.40076     10.41494      6.24017         0.047257     -0.011164     -0.407852
Sc	      8.57061      6.35189      6.28861        -0.139167     -0.005663     -0.112986
Ti	      0.08116      2.19314      2.16351         0.424371      0.398635      0.267725
V	      6.41674      4.27185      6.13888         0.161781      0.057455      0.236901
Fe	      6.57489     10.40026      8.30765         0.190794      0.031010      0.084215
Cu	      8.63115     10.48346     10.35797         0.084580     -0.228656      0.150706
Cu	      4.23569      4.17010      4.12284         0.130122     -0.118596      0.149726
Cu	      0.08414      4.26326      4.17895        -0.079107      0.091201      0.094996
Ni	      2.23475      6.32461      4.14970        -0.118036      0.132690      0.105773
O	      8.79428      8.55359     10.38148        -0.011472      0.091146      0.071815
O	      1.96042      1.98105      2.10993        -0.376666      0.082648      0.023038
O	      4.33381      4.29290      2.11882        -0.074090      0.020031     -0.034763
O	      4.28103      1.88077      4.19435        -0.035944      0.098324     -0.075299
O	      6.23580      4.13114      4.22205        -0.155450      0.030249     -0.179181
O	      6.38703      2.20237      6.31293        -0.024844     -0.124549      0.081336
O	      8.52492      4.20778      6.06108         0.055338      0.018149     -0.008029
O	      2.29817      4.23206      4.21060        -0.124298     -0.037340     -0.018824
O	      4.28495      6.53934      4.10682         0.207264     -0.366234     -0.226548
O	      4.44693      4.19732      6.11660        -0.044669     -0.017758     -0.102390
O	      6.49601      6.07038      6.29275        -0.022513      0.059380     -0.032702
O	      6.57535      4.11926      8.17919        -0.028273     -0.297475      0.050060
O	      8.83902      6.30926      8.31473         0.123840     -0.025809     -0.161352
O	      2.11190      6.33900      6.31517        -0.038206      0.047270     -0.080010
O	      4.35794      8.42964      6.22040        -0.004883     -0.009648     -0.087798
O	      4.22532      6.31381      8.48383         0.020765      0.047028     -0.101189
O	      6.49991      8.49803      8.30045        -0.045738     -0.139756      0.012111
O	      6.69781      6.21920     10.39228        -0.076205      0.328776      0.187151
