# total energy = -221.80650073 eV
 
CRYSTAL
PRIMVEC
0.025146 6.341411 6.266178 
6.324910 0.021359 6.270410 
4.241096 4.254887 -0.010364 
PRIMCOORD
36 1
Li	      4.13055      4.19693      0.05288         0.062918     -0.089177      0.007390
Li	      8.50109      2.25345      6.25809         0.082165     -0.065737     -0.008759
Li	      4.24424      8.48234      8.19449        -0.032140      0.020175      0.010175
Li	      6.33550      2.13634      8.23689         0.050533     -0.012248      0.048605
Li	      8.33452      4.37942      8.21962        -0.031025      0.009160      0.094430
Li	      8.52544      6.22668      6.35551         0.021084      0.032633      0.016861
Li	     10.54639      8.57665     10.53978        -0.018564      0.012985      0.021513
Li	      6.20241      8.46561      6.29707        -0.058742      0.013909     -0.020360
Li	      4.27754      6.51955      6.23198        -0.018986      0.073942     -0.017648
Sc	      6.32262      2.08151      4.29898         0.045916     -0.074259      0.036422
Sc	      4.32530      4.17804      8.29074         0.041008     -0.062724     -0.035543
Ti	      4.14431      4.30351      4.27245        -0.196734      0.121515      0.102819
V	      2.11004      6.41217      8.14087        -0.008426      0.073248     -0.062475
Fe	      6.36342      6.39253      4.26663        -0.084846      0.049116     -0.178565
Ni	      8.52481     10.56290     10.50098         0.023096      0.041930     -0.055010
Ni	      6.44283      4.22802      6.30516        -0.075663     -0.017159     -0.005613
Ni	      8.44880      6.36455     10.42191         0.048855     -0.029337      0.136071
Ni	      6.37897      6.35170      8.29190        -0.054645      0.082898     -0.080083
O	      4.25196      8.50286      6.23796        -0.041967      0.040941      0.023728
O	      2.13254      1.86216      2.22170         0.026040      0.027770     -0.025608
O	      4.51669      4.22505      2.21472        -0.051717     -0.029761      0.011960
O	      4.17304      2.22017      4.18145         0.075021      0.066778     -0.017992
O	      6.31739      4.28904      4.19226        -0.051212     -0.082558     -0.166441
O	      6.34311      2.18292      6.26834         0.000975     -0.082703     -0.018683
O	      8.44556      4.21909      6.22468        -0.004692      0.049656      0.144783
O	      2.26103      4.18717      4.13590         0.243442     -0.014460      0.022040
O	      4.27674      6.20776      4.16783         0.038587     -0.153866     -0.014390
O	      4.29517      4.25738      6.15610        -0.021280     -0.016227     -0.169737
O	      6.31625      6.34703      6.20699         0.027727      0.010861      0.122072
O	      6.34316      4.31652      8.30542        -0.020800     -0.061539      0.145034
O	      8.42382      6.39888      8.39518         0.045048      0.008469     -0.152001
O	      2.13038      6.37831      6.40272        -0.018853     -0.040520      0.042982
O	      4.06651      6.32558      8.42601         0.029730      0.019278     -0.078969
O	      6.41579      8.66804      8.35236        -0.037132     -0.022749      0.014655
O	      6.34656      6.39578     10.34301        -0.009586      0.040943      0.095821
O	      8.43773      8.44720     10.38878        -0.025134      0.058818      0.010515
