# total energy = -228.84378619 eV
 
CRYSTAL
PRIMVEC
0.000284 6.361172 6.294928 
6.255862 0.017181 6.277392 
4.181635 4.239823 0.000904 
PRIMCOORD
36 1
Li	      4.22486     10.55960      6.35386         0.027307      0.006410      0.009938
Li	      6.33370     10.48155      8.48829        -0.006419      0.027625      0.003159
Li	      4.27309      8.44586      8.44722        -0.046741      0.025929      0.021895
Li	      6.24890      8.50521     10.26059         0.018082     -0.019073      0.024185
Li	      4.18598      6.30751      2.16294         0.001654     -0.019008     -0.044586
Li	      6.22988      4.27852     10.34138        -0.005716      0.033412     -0.028744
Li	      4.14975      6.43126      6.44787        -0.030142      0.005777      0.067100
Li	      8.26717      8.65927      8.50424        -0.023738     -0.046956     -0.040118
Li	      6.13464      6.43093      8.41601         0.059836      0.020510      0.025518
Sc	      2.22162      8.43204      6.34510         0.008246      0.047492     -0.022016
Sc	      6.22096      4.31886      6.38709        -0.044316     -0.060039     -0.092216
Ti	      4.27128      2.11357      6.34830         0.220176     -0.015719      0.164523
V	      8.28545      6.40048     10.44211        -0.010256     -0.032067     -0.079462
Fe	      2.01886      2.12182      4.07702        -0.074514      0.039218      0.032095
Fe	      6.14860      8.51927      6.46546         0.081496      0.083605     -0.210601
Co	      4.13052      4.24409      4.16840         0.178616      0.022612     -0.103932
Cu	      4.21760      6.33251     10.30501         0.062058      0.046034      0.086990
Cu	      2.11661      4.22547      2.12811        -0.003286      0.048644     -0.124154
O	      4.17679      6.36188      8.46049        -0.006373      0.043380     -0.166112
O	      2.06243      2.19968      2.13365        -0.037300     -0.075567     -0.060017
O	      4.04747      4.23679      2.27596         0.026499     -0.010168      0.077731
O	      4.07878      2.25268      4.28910         0.046605      0.094087      0.066347
O	      6.09715      4.37632      4.18533        -0.277701     -0.118339      0.028358
O	      6.17757      2.17750      6.25092        -0.170446      0.015466     -0.025679
O	      8.34292      4.33322      5.98658         0.010773      0.001930      0.002026
O	      2.18074      4.26448      4.36427         0.014996     -0.090825      0.106378
O	      4.08339      6.20754      4.19409         0.071915     -0.019631      0.002224
O	      4.15460      4.09400      6.21607         0.011492     -0.039730     -0.051512
O	      6.34853      6.40060      6.20346         0.037963     -0.070131      0.049657
O	      6.40287      4.25435      8.33552        -0.090610     -0.011930      0.058411
O	      8.37556      6.31561      8.27175         0.034846      0.079058     -0.159947
O	      2.09478      6.36485      6.17035        -0.016550     -0.024900      0.065306
O	      4.20349      8.49617      6.28747        -0.101192      0.010152      0.041746
O	      6.28105      8.50909      8.29938         0.014950     -0.049925      0.238136
O	      6.52438      6.32836     10.40201         0.009204     -0.005342      0.040490
O	      8.40390      8.33251     10.51050         0.008586      0.058007     -0.003119
