# total energy = -88.94232537 eV
 
CRYSTAL
PRIMVEC
-0.000005 2.133196 2.132084 
4.083397 0.000295 -0.000304 
0.001368 8.774540 -8.769816 
PRIMCOORD
16 1
Li	      2.03798      2.39904     -0.26166        -0.000413      0.018438     -0.019460
Li	      4.07951      2.33856     -2.32955        -0.001431      0.024265     -0.024627
Li	      2.03868      4.35713     -2.21802         0.000580     -0.027586      0.027613
Li	      4.08120      4.11657     -4.10939         0.000656     -0.048895      0.047430
Mn	      4.08036      0.07272     -0.07255         0.000346      0.063145     -0.064068
Mn	      4.08188      6.56690     -6.56302        -0.000180     -0.030525      0.029312
Ni	      2.04011      6.39117     -4.25374        -0.001394      0.080487     -0.080415
Ni	      2.04019      8.76581     -6.62888        -0.001747     -0.013052      0.014309
O	      2.04019      6.63204     -6.62767         0.000108     -0.044968      0.046342
O	      4.08187      8.77546     -6.63676        -0.000753     -0.025513      0.024784
O	      2.03984      4.45823     -4.45294         0.001377     -0.106960      0.106897
O	      4.08180      6.73517     -4.59970         0.001458      0.047513     -0.043119
O	      2.03773      2.25816     -2.25344        -0.002468      0.034420     -0.035836
O	      4.08081      4.27008     -2.12924         0.002242     -0.013771      0.011702
O	      2.04009     10.80998     -6.54066         0.000725      0.054773     -0.053998
O	      4.08016      1.97648      0.15577         0.000897     -0.011772      0.013133
