# total energy = -139.98982217 eV
 
CRYSTAL
PRIMVEC
-2.061063 2.058184 4.131716 
-2.038752 -6.227261 4.169433 
4.170067 -0.029845 4.170782 
PRIMCOORD
24 1
Li	     -0.95602     -3.09097      7.15767         0.005687     -0.013344     -0.009513
Li	      1.06825     -3.10262      5.15911         0.011264     -0.015888      0.009955
Li	      1.09381     -1.06956      7.28461        -0.006919      0.003827     -0.001693
Li	     -0.97625     -5.19361      5.17720         0.003865     -0.006808     -0.011561
Li	      3.07404     -1.12425      5.29314        -0.000042      0.012497     -0.006620
Li	     -1.02714      0.96951      3.17955        -0.010693      0.008217     -0.012619
Mn	      1.05372      0.99728      5.19511        -0.004288      0.002053      0.004661
Mn	      1.09457     -5.21108      7.29864         0.002528      0.001747     -0.001176
Mn	     -1.00133     -3.10280      3.12419        -0.000541      0.000133      0.003499
Ni	     -1.01726     -1.05686      5.19307         0.003510      0.007372     -0.000523
Ni	      1.10499     -3.13031      9.35760        -0.017164     -0.017715     -0.001859
Ni	      1.04141     -1.07368      3.12625         0.016247      0.014259      0.000849
O	      0.99674     -5.22303      9.24070        -0.019828     -0.101108     -0.017345
O	     -3.20289     -3.03158      7.25405        -0.033681      0.005231      0.105131
O	     -1.02880     -3.12500      5.06492         0.114857     -0.109753     -0.031902
O	      1.08841      1.11907      7.14668         0.090910      0.027840     -0.023693
O	     -1.14711     -1.07798      7.26291        -0.041690     -0.115664      0.101020
O	      1.04854     -0.90055      5.19345         0.108357      0.064311      0.102254
O	     -0.96951     -3.26187      9.49833        -0.099659     -0.017191      0.036374
O	      1.17071     -3.27082      7.28762         0.017031     -0.031414     -0.101186
O	      1.08679     -1.09143      9.48246        -0.108589      0.117393      0.036165
O	     -0.86507     -5.18804      7.41075         0.028221      0.096463      0.022438
O	     -1.01367     -1.18855      3.13117        -0.120427     -0.045511     -0.102470
O	     -0.84585      1.01748      5.19264         0.061045      0.113052     -0.100185
