# total energy = -229.77733652 eV
 
CRYSTAL
PRIMVEC
0.033378 6.285788 6.380341 
6.279086 0.017848 6.395596 
4.177917 4.193048 0.019185 
PRIMCOORD
36 1
Li	      2.15721      8.39774      6.37550        -0.001712     -0.019646     -0.015593
Li	      2.23999      6.24262      8.46471         0.037890     -0.023551     -0.011347
Li	      6.30500      8.43737     10.48580        -0.011001      0.017666     -0.031987
Li	      4.25697      4.13015      4.23292         0.040619     -0.029374     -0.008740
Li	      8.39261      6.24704      6.49466        -0.042737      0.068013      0.114662
Li	      8.41584      6.36827     10.55894        -0.017492      0.018977      0.069569
Li	      4.19294      6.34867      6.54907        -0.018129     -0.057396      0.054639
Li	      8.33544      8.28705      8.66568        -0.027346     -0.011122     -0.013242
Li	      6.25167      6.36229      8.57148        -0.047253      0.003755      0.012762
Sc	      2.12814      2.03211      4.18867         0.004352     -0.052595      0.083329
Sc	      6.38083      8.34604      6.48578         0.131787      0.068566      0.037881
Ti	      6.44498      6.43421     12.71904         0.637408      0.053100     -0.232043
V	      6.21915      4.19791      6.41639        -0.215941      0.056373     -0.062918
Fe	      8.37026      4.31260      8.55568        -0.109111     -0.107001      0.037878
Fe	     10.34127      8.35398     10.64806         0.077723      0.042669      0.057173
Co	      4.22655      8.37700      8.50446         0.072704     -0.151440      0.000360
Ni	      4.21346      6.28284     10.55668        -0.022385     -0.021250      0.004487
Ni	      4.15749      6.25775      2.16957         0.041540      0.050903      0.030566
O	      2.17853      2.17134      2.13276        -0.038536      0.060523     -0.121024
O	      4.10646      4.13489      1.98430         0.018639     -0.019563     -0.007039
O	      4.19481      2.08461      4.05893        -0.019142      0.121163     -0.023873
O	      6.27738      4.16926      4.46701        -0.082843      0.027137     -0.031070
O	      6.26838      2.07351      6.46573         0.001255     -0.123725     -0.135523
O	      8.19661      4.19897      6.46345         0.083734      0.021412      0.025103
O	      2.04216      4.15648      4.26423        -0.021076     -0.000743     -0.008878
O	      4.20799      6.35957      4.21669         0.063773     -0.075196      0.096705
O	      4.36182      4.18719      6.45430         0.078352     -0.044820     -0.004543
O	      6.30716      6.22516      6.34831         0.025348     -0.036657      0.002215
O	      6.33779      4.17221      8.50327         0.015106      0.066062     -0.025456
O	      8.40109      6.21002      8.54798        -0.088502      0.090429      0.017217
O	      2.01829      6.27602      6.37777        -0.528434      0.003055      0.018175
O	      4.25710      8.51452      6.43646        -0.065069      0.051428      0.009864
O	      4.20029      6.48610      8.54802         0.001273      0.086254     -0.219843
O	      6.18749      8.40405      8.47240         0.029869     -0.013885     -0.029942
O	      6.25986      6.23460     10.83271         0.089978     -0.034018      0.267268
O	      8.46201      8.43792     10.64105        -0.094645     -0.085504      0.043206
