# total energy = -230.84554098 eV
 
CRYSTAL
PRIMVEC
0.017901 6.315267 6.353208 
6.330074 0.029374 6.340974 
4.212053 4.194354 0.028110 
PRIMCOORD
36 1
Li	      0.03800      6.27484      6.31773        -0.010626     -0.017909     -0.114078
Li	      8.48981      8.43691     12.61974         0.005659      0.006211      0.034954
Li	      6.38143      2.08577      4.33910         0.001241     -0.036260      0.037475
Li	      8.42618      4.23755      8.46396         0.047211     -0.057008     -0.007580
Li	      4.26043      4.15176      4.28202        -0.033104      0.036120     -0.023627
Li	      4.28201      2.10216      6.35196         0.018550      0.013625      0.099822
Li	      4.19788      8.38729      4.37345        -0.018796      0.002553      0.057064
Li	      8.40854      6.46441     10.60525         0.046271      0.009919      0.044128
Li	      4.25684      6.31048      6.33275         0.002941     -0.011119      0.036916
Sc	      8.42530      4.18295      4.40599         0.114490     -0.060467     -0.071825
Sc	      2.18478      4.12402      6.21597        -0.076543      0.026615     -0.115379
Ti	      2.13306      6.32337      8.32884         0.074594      0.278742     -0.516826
V	     10.49256      6.31431      8.47224        -0.105969      0.177450      0.058007
Fe	      4.15282      2.17853      2.08116        -0.188932     -0.053845     -0.185664
Fe	      6.52843      6.20929      8.57843        -0.080544      0.053177     -0.029102
Co	      6.29351      4.24566      6.38248         0.047046     -0.029045      0.107572
Co	      8.43153      8.40640      8.53830         0.104440      0.182135     -0.109065
Cu	      2.12221      2.14656      4.21150        -0.151336      0.131593      0.027373
O	      2.06868      1.95910      1.96163         0.085767     -0.213477     -0.074730
O	      4.31326      4.26839      2.08013         0.129189     -0.138855     -0.029715
O	      4.12964      2.11803      4.06221         0.140082      0.077124      0.189708
O	      6.29135      4.32161      4.32176        -0.014366     -0.181114      0.025068
O	      6.29309      2.28589      6.53431         0.010909      0.023341     -0.184513
O	      8.26503      4.25543      6.38688        -0.019131      0.001323     -0.019285
O	      2.12430      4.09980      4.24822         0.046927      0.155333     -0.074025
O	      4.31557      6.37057      3.94489        -0.021048     -0.087928      0.144205
O	      4.30273      4.23857      6.42448         0.057562     -0.113298      0.548326
O	      6.30675      6.23720      6.61406         0.047096     -0.080181      0.078271
O	      6.33327      4.20124      8.30768        -0.150438     -0.023041      0.050778
O	      8.50114      6.32098      8.53599         0.027974      0.195860      0.005993
O	      2.17157      6.23893      6.46819        -0.072106      0.007350      0.386610
O	      4.29863      8.42421      6.49525         0.026581     -0.037573     -0.099316
O	      4.08715      6.38379      8.51735        -0.013617     -0.092971      0.018564
O	      6.24656      8.51231      8.50278         0.045280     -0.021643      0.002958
O	      6.31198      6.34584     10.46254        -0.057026     -0.006085      0.191183
O	      8.43851      8.47002     10.55893        -0.066231     -0.116653     -0.490244
