# total energy = -231.30420083 eV
 
CRYSTAL
PRIMVEC
0.025097 6.405051 6.364159 
6.335036 0.026945 6.362093 
4.247457 4.292840 -0.006217 
PRIMCOORD
36 1
Li	      6.32689      6.43953     12.64736        -0.020177     -0.016817      0.023925
Li	      6.47272      8.46904     10.67847         0.026423      0.048526      0.033503
Li	      6.28073      2.41910      8.54293         0.024901     -0.008735      0.019319
Li	      8.26244      4.34112      8.47157         0.062335      0.011889     -0.003352
Li	      6.45239      4.21967      6.57811         0.014632     -0.025370      0.021909
Li	      6.27963      4.35253     10.35717        -0.002047     -0.012279      0.103000
Li	      8.36829      6.55164     10.47107         0.004104      0.023074     -0.020142
Li	      8.72833      8.49008      8.62978        -0.059463      0.020302      0.010201
Li	      6.43650      6.20904      8.58379         0.018264     -0.025650     -0.032749
Sc	      6.29143      4.30018      2.14593        -0.103951      0.000748      0.103154
Sc	      4.30109      6.35320      6.35688         0.062142      0.004162     -0.088247
Ti	      8.64221      6.35489      6.53553         0.211954      0.005615      0.550818
V	      2.10877      4.28435      6.31184        -0.035343     -0.075562     -0.006547
Fe	      4.21837      2.18766      2.13348        -0.015008     -0.002721     -0.038100
Fe	      2.09118      2.14829      4.19719         0.014598      0.004297     -0.009536
Co	      4.45965      6.35671     10.60695        -0.024932     -0.135484      0.069763
Co	      8.34448      2.24196      6.29375        -0.040483      0.208168     -0.026422
Ni	      4.25452      4.28963      4.22805         0.010369      0.043184     -0.038144
O	      6.35389      4.31595      8.46745         0.009754      0.017360      0.042905
O	      2.17632      2.12724      2.10772        -0.009756     -0.064821     -0.016282
O	      4.25862      4.14778      2.18669         0.014511      0.038660     -0.138533
O	      4.14760      2.18409      4.20521         0.058073     -0.113496      0.051634
O	      6.40107      4.43415      4.20174         0.102751     -0.070790     -0.089544
O	      6.24359      2.16773      6.35865        -0.282540     -0.094851      0.012386
O	      8.46820      4.46248      6.27386         0.058047      0.020643     -0.001495
O	      2.12393      4.22754      4.43996        -0.074731     -0.001252      0.027690
O	      4.37495      6.34989      4.29257        -0.107674      0.095495      0.046791
O	      4.11548      4.20964      6.31768         0.006631      0.000048      0.089974
O	      6.42710      6.55708      6.26704         0.003153      0.018074      0.028281
O	      8.48360      6.43716      8.33814         0.039918     -0.018232     -0.478441
O	      2.18665      6.30001      6.37800        -0.043022      0.035065     -0.053204
O	      4.30846      8.48710      6.44713         0.052665      0.005274     -0.047935
O	      4.20311      6.51689      8.47985         0.018169     -0.026433     -0.020712
O	      6.29282      8.60270      8.23909         0.026532      0.021139     -0.011147
O	      6.24250      6.47295     10.58613        -0.054184      0.029400     -0.023845
O	      8.44303      8.67966     10.69949         0.033384      0.041373     -0.090874
