# total energy = -235.24978790 eV
 
CRYSTAL
PRIMVEC
0.021173 6.359289 6.303673 
6.397713 0.010152 6.314571 
4.266015 4.247838 0.005778 
PRIMCOORD
36 1
Li	      8.50217      2.12340      6.31176        -0.041192     -0.011465     -0.010015
Li	      4.25960      6.37743      2.14547        -0.075997     -0.004055      0.015513
Li	      4.34206      4.33960      4.31612         0.002023      0.026326     -0.005192
Li	      4.26134      2.21815      6.28983         0.066051      0.019979     -0.019845
Li	      6.20786      4.35676      6.34554        -0.004245     -0.041508      0.032340
Li	      8.56292      6.42495     10.47928         0.049829      0.062000     -0.001241
Li	      4.41272      6.18244      6.29294        -0.033973     -0.004620      0.003402
Li	      4.32972      4.22799      8.31357        -0.009311     -0.028381      0.035783
Li	      6.40428      6.32076      8.35449         0.036438     -0.029059      0.014544
Sc	      4.16997      8.37309      4.20934        -0.072628     -0.061415      0.015387
Sc	      2.30848      4.18165      6.31690         0.091702      0.059325     -0.013171
Ti	      8.47219      4.38680      8.35835        -0.271560      0.676682      0.029135
V	      6.40363      0.12883      6.34003         0.106192      0.133067     -0.158973
Fe	      2.19593      6.40795      8.39483        -0.130018     -0.046539     -0.025981
Fe	      4.23358      0.02146      4.18621         0.064716     -0.032730      0.157361
Co	      6.37533      6.35688      4.23987        -0.095683     -0.041982      0.055947
Co	      4.27474      8.47580      8.40487         0.120936     -0.074415      0.017801
Co	      6.42611      8.47772     10.48637        -0.024167     -0.052146     -0.043009
O	      2.17077      2.11828      2.20011        -0.081573      0.041569      0.238177
O	      4.24345      4.26470      2.00800         0.014712     -0.070003      0.094175
O	      4.27862      2.01101      4.19529         0.150889      0.040294      0.030146
O	      6.44302      4.35862      4.16371         0.018893      0.074873      0.047949
O	      6.40750      1.93132      6.25699         0.031027     -0.110134      0.128442
O	      8.65181      4.20976      6.40967         0.028599     -0.007104      0.029386
O	      2.12864      4.10747      4.12359        -0.067098     -0.096546     -0.030810
O	      4.31622      6.39092      4.22030        -0.118134     -0.010454      0.053285
O	      4.25789      4.21778      6.33694        -0.073958      0.035835     -0.031767
O	      6.41086      6.39367      6.20682        -0.006823     -0.026090     -0.263745
O	      6.57770      4.24553      8.42783         0.248621     -0.024014     -0.033632
O	      8.54205      6.20012      8.47495        -0.040369     -0.635690     -0.099998
O	      2.03531      6.36267      6.39782        -0.075620      0.016857     -0.091091
O	      4.33864      8.69054      6.28557        -0.044400     -0.011733     -0.041025
O	      4.19449      6.35891      8.48045         0.052492      0.139429     -0.102349
O	      6.36145      8.59346      8.43012         0.082461      0.052298     -0.064246
O	      6.31346      6.33799     10.61077         0.068869     -0.002761      0.019620
O	      8.51235      8.57502     10.52359         0.032298      0.044310      0.017697
