# total energy = -227.42882238 eV
 
CRYSTAL
PRIMVEC
0.005478 6.253441 6.426760 
6.234701 0.011353 6.420917 
4.165078 4.173969 -0.001243 
PRIMCOORD
36 1
Li	      4.14325      4.21186      0.12209         0.037700     -0.054466      0.062226
Li	      6.13420      4.17183      2.21336         0.041175     -0.050092      0.036401
Li	      4.16421      2.23633      2.17905         0.011150      0.015123     -0.010903
Li	      8.28251      4.19397      4.33697         0.018840      0.013392      0.022458
Li	      2.15812      4.15353      2.13973        -0.053500     -0.043319      0.016878
Li	      4.21820      4.12101      4.22355         0.000896     -0.032433     -0.015599
Li	      6.16760      4.14499      6.36717        -0.041508      0.025556      0.000804
Li	      4.17408      8.33303      4.29363         0.031287      0.043997     -0.014162
Li	      4.15227      6.22781      6.39539         0.008234     -0.010305      0.004534
Sc	      2.13491      2.00158      4.23896        -0.006000      0.097393     -0.004950
Sc	      2.08843      4.24055      6.43289        -0.059294      0.034417     -0.013898
Ti	      8.40230      2.24654      6.44575         0.137990      0.273744      0.068217
V	      6.07857      6.18224      8.59333        -0.012303      0.119645     -0.155038
Fe	      4.15671      6.03690      2.10833         0.056797      0.222372      0.072586
Fe	      2.15119      6.23820      4.28926        -0.062795     -0.076408     -0.079146
Cu	      6.17016      2.21483      4.28956        -0.017958      0.045315      0.018629
Ni	      4.21232      2.06743      6.40867         0.045703     -0.089687      0.045792
Ni	      8.31093      8.33260      8.55866         0.069619      0.059511      0.056097
O	      2.03594      2.08675      2.07389         0.092213     -0.028709     -0.033187
O	      4.16589      4.19027      2.13828         0.008526     -0.169071      0.019151
O	      4.18877      2.08042      4.34548        -0.042670     -0.032348     -0.080646
O	      6.25171      4.18701      4.24380         0.053585      0.033222      0.055870
O	      6.31713      2.11238      6.58057         0.092169     -0.058970      0.051301
O	      8.35316      4.08929      6.40036         0.008351     -0.313243     -0.013751
O	      2.05142      4.20395      4.35274         0.022585     -0.037785     -0.011972
O	      4.13997      6.30861      4.13855         0.085485     -0.003018      0.024667
O	      4.12762      4.13694      6.52864         0.011903      0.092882     -0.117647
O	      6.26626      6.26403      6.52165        -0.098484     -0.010626     -0.056407
O	      6.24219      4.39264      8.57249         0.111400     -0.129501     -0.004295
O	      8.32275      6.28184      8.58934        -0.002364     -0.068619      0.062824
O	      2.08918      6.31600      6.29344        -0.012671      0.047995      0.002839
O	      4.05537      8.34921      6.42941        -0.207574     -0.022820     -0.041673
O	      4.33270      6.23607      8.55828        -0.200226      0.112427      0.003122
O	      6.26533      8.14657      8.48687        -0.098430     -0.063066     -0.089195
O	      6.31913      6.33470     10.42711        -0.013657      0.013806      0.076267
O	      8.23194      8.30375     10.79459        -0.016174      0.043692      0.041804
