# total energy = -226.98233318 eV
 
CRYSTAL
PRIMVEC
0.044057 6.378292 6.182148 
6.353282 0.047907 6.178339 
4.273109 4.286900 -0.005197 
PRIMCOORD
36 1
Li	      4.36507      8.47011      8.16873         0.026083     -0.050246      0.066474
Li	      4.39015      6.42668     10.30723        -0.025536      0.040824     -0.001786
Li	      6.42301      8.42947     10.27875        -0.033422      0.010070     -0.005737
Li	      8.42529      4.34005      8.21829        -0.072381     -0.001160      0.020036
Li	      6.40361      4.29228      6.19690         0.002662      0.024421     -0.055913
Li	      6.41159      4.41752     10.29738         0.031054     -0.003699     -0.035963
Li	      8.39077      6.42175     10.31474         0.007901     -0.041934     -0.037884
Li	      4.25772      6.46555      6.19279         0.030723     -0.009087     -0.061705
Li	      6.37573      6.43379      8.33782        -0.007015      0.003820     -0.030608
Sc	      2.10312      2.13243      4.05359        -0.011754     -0.082178      0.027796
Sc	      4.28278      4.31773      4.04907         0.076868      0.018589      0.059147
Ti	      4.33695      4.41710      8.38773         0.204210      0.286000      0.073815
V	      8.54962      6.34537      6.22563        -0.149031      0.165430     -0.057245
Fe	      2.26798      8.47472      6.11064        -0.081038      0.085491     -0.017953
Fe	      6.35029      8.56999      6.20097         0.043689     -0.055654     -0.005991
Ni	      6.39761      6.41539     12.32621        -0.032836     -0.019501      0.107646
Ni	      2.18361      6.37116      8.23398         0.073160      0.024566      0.128210
Ni	      6.35772      2.19727      8.22771        -0.010879      0.053113      0.092108
O	      6.39002      6.42955     10.41917         0.010033     -0.020151     -0.097530
O	      2.11121      2.14579      1.93597         0.079888      0.057998      0.013840
O	      4.30911      4.32213      1.98074        -0.061614     -0.075148     -0.044088
O	      4.23496      2.19360      4.29438         0.025283     -0.014034     -0.049557
O	      6.34434      4.36554      4.10144        -0.015995      0.025455      0.113079
O	      6.28745      2.10559      6.17610         0.101624      0.044419     -0.111117
O	      8.55126      4.42165      6.18962        -0.046949     -0.194426      0.002233
O	      2.17987      4.24261      4.18801        -0.038923      0.030084     -0.070275
O	      4.33485      6.36163      4.11173        -0.003288      0.000770      0.101428
O	      4.18876      4.16139      6.23031         0.014814      0.048745      0.015787
O	      6.55251      6.50477      6.16973        -0.046594     -0.022723     -0.037121
O	      6.20828      4.24878      8.22592        -0.228093      0.144301      0.032665
O	      8.53405      6.50476      8.08403        -0.090195      0.027969      0.100233
O	      2.13085      6.42595      6.18806         0.043630     -0.063545     -0.122813
O	      4.27986      8.55996      6.19171         0.055548     -0.035206     -0.028416
O	      4.27157      6.27530      8.23392         0.097920     -0.320125      0.035118
O	      6.52764      8.57187      8.16816         0.032123     -0.083904      0.088053
O	      8.51482      8.56997     10.29422        -0.001673      0.000654     -0.205966
