# total energy = -231.23060988 eV
 
CRYSTAL
PRIMVEC
0.049818 6.342450 6.317061 
6.349916 0.029328 6.337363 
4.244800 4.253647 0.007875 
PRIMCOORD
36 1
Li	      0.08653      6.30837      6.31809         0.046385      0.004403      0.056020
Li	      8.52534     10.53035     10.51778        -0.004939      0.034798      0.003996
Li	      6.47092      8.49053     10.51161        -0.023093     -0.026868     -0.022893
Li	      0.04407      2.17629      2.16974         0.066776      0.009362      0.025838
Li	      2.05275      4.23510      2.19454        -0.021905     -0.015026      0.016457
Li	      6.29574      6.40192      4.18998        -0.077085     -0.024722      0.012507
Li	      6.37165      4.23839     10.40460         0.007251     -0.001561     -0.013808
Li	      4.21617      6.41366      6.29906        -0.032298     -0.028066     -0.046243
Li	      8.57139      8.54753      8.56541         0.007834      0.069199     -0.016223
Sc	      8.60007      6.30410      6.43833        -0.025431     -0.005686     -0.186540
Sc	      6.34551      4.32053      6.37300        -0.035942      0.109187     -0.012220
Ti	      4.16431      2.04980      2.19991        -0.016241      0.042942      0.199305
V	      8.47718      6.42898     10.49489        -0.000176      0.293233     -0.370937
Fe	      8.53776      8.52146     12.61100         0.035355     -0.025439      0.291723
Fe	      4.27129      4.30771      4.15970         0.074004      0.046875     -0.050661
Fe	      6.33377      8.49512      6.29916         0.046530     -0.056016      0.159476
Cu	      6.35498      4.23720      2.20492        -0.012240     -0.001217     -0.136585
Cu	      6.35800      6.34196      8.47589        -0.155598      0.129970      0.175104
O	      2.25062      2.20785      2.00471         0.076590      0.105819     -0.039800
O	      4.38880      4.09918      2.17949        -0.329285     -0.176530     -0.091081
O	      4.25094      2.18125      4.15079        -0.020679      0.001525     -0.134100
O	      6.24695      4.30276      4.26101         0.100297     -0.017387      0.220535
O	      6.42536      2.19874      6.36208         0.023848      0.049484     -0.013730
O	      8.46288      4.23910      6.27320        -0.027337      0.032558     -0.000738
O	      2.19718      4.31305      4.28247        -0.081578      0.333994     -0.004286
O	      4.09093      6.29048      4.19141         0.409457     -0.045391      0.033554
O	      4.20463      4.18853      6.26571         0.009673     -0.092316      0.061198
O	      6.43276      6.43593      6.31041         0.049097      0.051629     -0.245094
O	      6.35338      4.40449      8.40590         0.010207     -0.301146      0.024903
O	      8.61874      6.38697      8.48021        -0.017331     -0.028579      0.244161
O	      2.16115      6.34352      6.22117        -0.015019     -0.006795      0.034372
O	      4.28993      8.47539      6.44972        -0.073499     -0.014037      0.023253
O	      4.10927      6.45534      8.50014         0.208150      0.008438     -0.016792
O	      6.26698      8.33762      8.33158         0.023475      0.010146      0.099991
O	      6.63884      6.37356     10.51685        -0.207851     -0.040320     -0.228285
O	      8.55187      8.39776     10.63577        -0.017404     -0.426461     -0.052376
