# total energy = -216.89494478 eV
 
CRYSTAL
PRIMVEC
0.022727 6.289654 6.283796 
6.184863 0.007417 6.298554 
4.133705 4.213274 -0.005008 
PRIMCOORD
36 1
Li	      2.04297      2.12282      0.08524         0.027315      0.013032     -0.029281
Li	      4.07807      2.05470      2.23905         0.021330      0.017231     -0.028495
Li	      2.12511      4.18546      2.18334        -0.009005     -0.036365     -0.049681
Li	      2.12780      2.14410      4.02272         0.023639      0.022356      0.049480
Li	      4.05143      4.27121      4.05644         0.001677     -0.017210     -0.024168
Li	      8.32139      6.23586      6.29979        -0.048901      0.021085     -0.007563
Li	      2.13050      6.20268      4.06175        -0.016350     -0.015717      0.025728
Li	      4.08400      6.34368      6.28856        -0.086627      0.082271      0.013420
Li	      8.22225      8.39503      8.47806        -0.012496      0.014603     -0.003615
Sc	     10.30824      8.33719     10.38711        -0.000686     -0.040605      0.013725
Sc	      2.14887      4.17735      6.28428        -0.017304     -0.045068     -0.038626
Ti	      4.10218      4.22125      0.06196         0.007667     -0.134925      0.137864
V	      6.07289      4.31306      6.26728         0.026839      0.063675      0.074647
Ni	      4.13916      0.05264      4.18356        -0.016353     -0.060451      0.091787
Ni	      6.21746      8.39680     10.44370         0.058575      0.011085      0.097524
Ni	      2.12625      6.31966      8.38014         0.038297     -0.094768      0.080865
Ni	     10.27933      6.28731      8.39820        -0.043520      0.068823     -0.053052
Ni	      6.27074      6.35466      8.43865         0.023614     -0.034358     -0.024508
O	      1.88341      1.99516      2.10807         0.198176      0.136198     -0.049088
O	      4.10860      4.19785      1.94065        -0.041811     -0.092706     -0.171036
O	      4.17690      1.94140      4.21501        -0.070974      0.168344      0.029981
O	      6.18286      4.16412      4.43755        -0.044602      0.091156     -0.008746
O	      6.18758      2.15942      6.35870         0.007957     -0.016685     -0.039158
O	      8.28070      4.23016      6.16908         0.102900     -0.008580      0.140824
O	      2.06341      4.13477      4.26518        -0.023057      0.027697     -0.000235
O	      4.08433      6.32911      4.06898         0.042560     -0.020043      0.128360
O	      4.30232      4.24106      6.28948        -0.097075     -0.008302      0.012792
O	      6.18534      6.14377      6.35585         0.012406      0.007631     -0.135097
O	      6.26886      4.22825      8.19421        -0.000477     -0.032498      0.024885
O	      8.32092      6.34285      8.36948        -0.055274     -0.014554     -0.046063
O	      1.98319      6.24459      6.31740        -0.086543      0.002090     -0.103252
O	      4.18622      8.54048      6.21597        -0.032283      0.087980     -0.012564
O	      4.17157      6.32709      8.54851         0.013879      0.005084     -0.142864
O	      6.24278      8.41013      8.36935        -0.019730      0.051473     -0.102300
O	      6.26719      6.33096     10.55052         0.008774     -0.131510      0.114633
O	      8.25773      8.61914     10.47346         0.107465     -0.087468      0.032876
