# total energy = -243.66617742 eV
 
CRYSTAL
PRIMVEC
-0.004832 6.327418 6.339284 
6.417225 -0.003901 6.337946 
4.291597 4.230888 -0.016029 
PRIMCOORD
36 1
Li	      6.49466     10.47983      8.43663        -0.035425     -0.005901     -0.012053
Li	      4.36446      6.24775     10.47014        -0.080308      0.065826      0.065816
Li	     10.61367      6.41923      8.49102        -0.119876     -0.068407     -0.070152
Li	      8.42873      6.43988      6.43191        -0.020069     -0.054632      0.176985
Li	      8.44539      6.37297     10.44416         0.009997     -0.109312     -0.156012
Li	      6.55543      8.31872      6.37162         0.064552     -0.056447     -0.019913
Li	      4.30343      6.31379      6.36369         0.053108     -0.064840      0.007326
Li	      8.51245      8.42240      8.48865        -0.066011     -0.071076     -0.077857
Li	      6.48043      6.33617      8.56537         0.136488     -0.005736     -0.096335
Sc	      6.40857      6.34141     12.63343        -0.278556      0.185989      0.711991
Sc	      6.40397      4.28999      6.41491         0.235777      0.065302      0.017240
Ti	      2.17691      8.34355      6.21776        -0.252647      0.207771      0.402792
Ti	      4.39581      8.25066      8.46638        -0.037500     -0.025408      0.149661
Ti	      4.24710      4.34878      4.23243        -0.422666     -0.050459     -0.215003
Cr	      2.15699      2.10174      4.19611         0.127746      0.138189     -0.105560
Co	      8.53633      4.37889      8.45965         0.226007     -1.076547     -0.032111
Cu	      6.29871      4.27909     10.41889         0.138173     -0.053314     -0.234932
Ni	      6.40823      8.42670     10.52018        -0.107732      0.226775     -0.021604
O	      2.27483      2.23060      2.11624         0.089903     -0.232478     -0.028624
O	      4.25163      4.15567      2.17408         0.264836     -0.052676      0.074443
O	      4.23293      2.18283      4.11186         0.039515     -0.025553     -0.100823
O	      6.28921      4.25308      4.21005        -0.000545     -0.017555      0.023845
O	      6.57432      2.11832      6.32776         0.188163     -0.094146     -0.108976
O	      8.56947      4.10051      6.35970         0.092894     -0.261000     -0.503325
O	      2.30441      4.13214      4.20598         0.121792     -0.025533      0.376157
O	      4.41083      6.21465      4.17842        -0.012308      0.304675      0.037474
O	      4.32543      4.19880      6.16450        -0.003198      0.070371     -0.151893
O	      6.45805      6.30098      6.15855        -0.092143     -0.001244     -0.081570
O	      6.48343      4.20887      8.40349        -0.362438      0.096759      0.643679
O	      8.57706      6.18755      8.43317        -0.022901      1.291826      0.030300
O	      2.08558      6.48461      6.37680         0.053707      0.172780     -0.095409
O	      4.16171      8.46614      6.48860        -0.008351     -0.061661     -0.340059
O	      4.25409      6.43820      8.46155         0.050961      0.207865      0.029658
O	      6.28107      8.43732      8.46464        -0.177346     -0.033760     -0.025692
O	      6.39452      6.40351     10.64093        -0.023916     -0.548538     -0.270604
O	      8.47776      8.44387     10.68809         0.230316     -0.037904      0.001140
