# total energy = -140.04442733 eV
 
CRYSTAL
PRIMVEC
-4.116411 -2.070205 2.065709 
2.090335 -4.178137 2.092392 
2.085267 2.050503 8.297339 
PRIMCOORD
24 1
Li	      1.04444     -3.16838      5.13044        -0.006769     -0.014648      0.023494
Li	      1.12098     -0.99273      7.31093        -0.001953      0.007693     -0.002417
Li	     -1.03902     -5.29838      5.12974        -0.001860      0.004903     -0.001540
Li	     -1.04392     -1.01904      0.99890        -0.013699     -0.003786      0.003465
Li	     -0.99989     -3.15066      7.31711         0.004238      0.005154      0.001521
Li	     -0.98882     -1.03682      9.41617        -0.000752      0.023842     -0.014558
Mn	      1.04823      1.02632      5.20035         0.013377      0.012739      0.019154
Mn	     -1.01147     -1.05845      5.17976         0.017793     -0.013936     -0.007156
Mn	     -1.01257     -3.13489      3.09752        -0.004951     -0.021226      0.002787
Ni	      1.04606     -1.07445      3.09528         0.002876      0.015140      0.017357
Ni	      3.13189     -1.07331      9.35001         0.000038     -0.005617     -0.008667
Ni	      1.07846     -3.13272      9.36673         0.004217     -0.022536     -0.019359
O	      1.07638     -2.98887     11.41282         0.108900      0.055848      0.107986
O	     -1.00800     -2.99253      5.09443         0.118172      0.034241     -0.017668
O	      1.05957      1.02079      7.10355         0.108032     -0.102231     -0.056238
O	     -1.11947     -1.07624      7.13508        -0.017122     -0.088282     -0.027672
O	      0.93312     -3.11676      3.12131        -0.029613     -0.116980      0.105032
O	      0.92427     -0.95547      5.18463        -0.020519      0.022794      0.106913
O	      1.19216     -3.28253      7.26230         0.007219     -0.029837     -0.097909
O	      1.06310     -1.06590      9.47910        -0.112759      0.106353      0.025957
O	     -0.86435     -5.22490      7.37512         0.015924      0.099401      0.028675
O	     -1.01729     -1.14030      3.25149        -0.118502     -0.014530      0.042801
O	     -0.98247     -3.32326      9.34217        -0.104667     -0.063363     -0.104147
O	     -2.95173     -3.12530      3.12736         0.032379      0.108864     -0.127809
