# total energy = -243.67274660 eV
 
CRYSTAL
PRIMVEC
0.022979 6.298905 6.236014 
6.380244 0.010044 6.249048 
4.266094 4.220527 -0.005866 
PRIMCOORD
36 1
Li	      2.16738      2.08210      0.06622         0.009046     -0.003793      0.015056
Li	      4.26094      8.43644      8.18655        -0.053536      0.004687      0.032149
Li	      6.38614      2.13180      4.22146         0.042647      0.012579     -0.044995
Li	      6.40697      2.07342      8.24834        -0.036774     -0.022679      0.051431
Li	      6.32148      6.34654      4.20924        -0.039224     -0.037600      0.064177
Li	      6.37520      4.09362      6.30574         0.025003     -0.090558      0.036473
Li	      4.27648      8.40043      4.27882        -0.047412      0.011170     -0.055079
Li	      6.25937      8.42241      6.25263         0.019387      0.022077     -0.029371
Li	      4.31088      6.48838      6.23343         0.026996      0.069547      0.004019
Sc	      4.22766      0.04554      4.17480        -0.146756     -0.033730     -0.068667
Sc	      2.17859      6.38892      4.23232         0.051454      0.093113     -0.050419
Ti	      2.06634      4.01197      2.10225        -0.088775     -0.339883      0.129922
Ti	      4.33210      4.18479      4.26630         0.081808      0.171147      0.133001
Ti	      6.39727      6.41583      8.14712        -0.002487      0.147679     -0.320557
Cr	      4.26526      4.18841      0.03280         0.043546      0.008807      0.011039
Co	      4.33716      2.12471      6.24226        -0.028493      0.029334     -0.124465
Cu	      2.14030      6.32566      8.25380         0.023330     -0.028755      0.036018
Cu	      4.30785      4.24837      8.24678         0.140386      0.037564     -0.120171
O	      2.06730      2.17746      2.09161        -0.020591      0.262586      0.035185
O	      4.07864      4.19149      2.09138        -0.248220     -0.041505     -0.004362
O	      4.24492      2.19027      4.14798         0.000971     -0.000980      0.061776
O	      6.31658      4.22149      4.00156        -0.027729     -0.011559      0.161138
O	      6.32628      2.01140      6.25930        -0.046667     -0.103027      0.052832
O	      8.56789      4.20215      6.30702         0.001833     -0.040919     -0.030317
O	      2.27275      4.21286      4.06780        -0.009109     -0.019770     -0.046020
O	      4.21595      6.13163      4.19031        -0.004469     -0.071849     -0.004326
O	      4.33319      4.20546      6.16084         0.060461     -0.056766     -0.337854
O	      6.46137      6.31509      6.32371         0.044140     -0.016781      0.272925
O	      6.49506      4.30440      8.32163         0.263886      0.052719      0.025838
O	      8.40015      6.15263      8.38796        -0.015698      0.003723     -0.042683
O	      2.04264      6.32415      6.31296        -0.062010      0.004034     -0.124259
O	      4.28363      8.52084      6.21745        -0.038524      0.040047      0.010579
O	      4.48838      6.41257      8.33934         0.246738      0.070265     -0.002231
O	      6.56390      8.33602      8.27854        -0.167308     -0.159339     -0.029426
O	      6.38952      6.32497     10.43873        -0.002913      0.035781     -0.017288
O	      8.56570      8.45705     10.25538         0.005061      0.002632      0.318935
