# total energy = -243.13861355 eV
 
CRYSTAL
PRIMVEC
0.027605 6.174169 6.390691 
6.403830 0.000115 6.418204 
4.266269 4.131599 0.003245 
PRIMCOORD
36 1
Li	     10.59604      4.17433      6.42960         0.007041      0.040610      0.044421
Li	      8.51542      4.14891      4.36713        -0.075050      0.017342     -0.003700
Li	      4.24825      6.10718      2.20040         0.055779      0.020169      0.049407
Li	      6.37681      6.09150      4.40896        -0.014032     -0.054187     -0.074334
Li	      4.33461      4.19875      4.24842         0.079020      0.000018     -0.024073
Li	      8.40349      6.07390      6.40813         0.013619      0.067076     -0.060478
Li	      6.51280      4.31644      6.30956         0.015841     -0.038148     -0.088774
Li	      4.40077      6.11968      6.35053        -0.020385     -0.019286     -0.045845
Li	      6.45596      6.14609      8.42804         0.064444     -0.013721     -0.060615
Sc	      8.49819      2.10488      6.45280        -0.074145     -0.080593      0.101427
Sc	      4.25437      2.04292      2.16716        -0.062502     -0.024092      0.073040
Ti	      6.29251      2.08062      4.40104        -0.292576      0.400352      0.372228
Ti	      0.09711      4.09444      4.22419         0.102020     -0.307928      0.002039
Ti	      4.34951      4.09399      8.40413         0.022630     -0.152979     -0.407196
Cr	      6.42810      8.18977      6.39140         0.020912      0.063200     -0.034603
Co	      6.34663      4.14153      2.15038         0.127768     -0.035436     -0.062663
Ni	      8.61915      4.23322      8.48007        -0.122938     -0.014609      0.054262
Ni	      2.15451      6.19900      4.28294         0.095742     -0.052232      0.093883
O	      2.20122      2.13542      2.10026        -0.009527     -0.143789      0.048140
O	      4.27310      4.10383      2.16800         0.491875     -0.013250      0.041993
O	      4.43579      2.01305      4.21452         0.244557      0.008873     -0.009952
O	      6.39836      3.97131      4.21742        -0.003272     -0.264050      0.068071
O	      6.44424      2.05865      6.24172        -0.006857      0.022313     -0.345903
O	      8.51439      4.10982      6.47995         0.044782     -0.008409     -0.051525
O	      2.03034      4.14826      4.31741        -0.115295     -0.119732     -0.032580
O	      4.23786      6.36066      4.26900         0.110112      0.304671      0.000621
O	      4.19153      4.09330      6.54767         0.026137     -0.012860      0.318156
O	      6.40724      6.26661      6.37151        -0.020686     -0.018030      0.068079
O	      6.29875      4.15651      8.68710        -0.107216      0.006119      0.089966
O	      8.58025      6.29561      8.62556        -0.021931      0.151878     -0.103167
O	      2.15877      6.12526      6.40322        -0.043553     -0.017610      0.051954
O	      4.32894      8.24905      6.32302        -0.025222      0.024533     -0.025793
O	      4.21602      6.05979      8.54967        -0.437854      0.034571     -0.014136
O	      6.48188      8.16920      8.50428         0.026869      0.114367      0.019636
O	      6.47603      6.17819     10.67022        -0.102510     -0.005801     -0.011773
O	      8.58255      8.26071     10.65911         0.006404      0.120649     -0.040214
