# total energy = -247.03292145 eV
 
CRYSTAL
PRIMVEC
0.014953 6.558590 6.343533 
6.170826 0.058637 6.301727 
4.134896 4.365764 0.016934 
PRIMCOORD
36 1
Li	      2.17418      6.63250      8.49568         0.052481      0.105806     -0.024121
Li	      4.09763      2.09223      2.21432        -0.016111     -0.107015     -0.028571
Li	      8.16801      4.40447      4.14824        -0.012236     -0.020542     -0.000943
Li	      2.05356      4.38299      2.16436         0.004138     -0.021449     -0.013410
Li	      6.24069      6.53480      4.24890        -0.030220      0.013155     -0.005163
Li	      8.17173      6.61606      6.32483         0.036441      0.032291     -0.047393
Li	      6.19818      4.52497      6.24391        -0.001996      0.045069     -0.015743
Li	      8.22026      6.60979     10.52456         0.046321     -0.019123      0.047255
Li	      4.09609      4.48346      8.43932         0.007231      0.061212     -0.012783
Sc	      0.03421      6.54750      6.35125         0.061584      0.100954      0.022264
Sc	     10.20339      6.68796      8.48866         0.062991      0.015039      0.045118
Ti	      8.22272      2.31851      6.35343        -0.125780      0.099987      0.237871
Ti	      4.21310      4.24566      4.22437         0.219008     -0.061539      0.041985
Ti	      6.19053      6.62461      8.40288        -0.273097      0.002615     -0.021510
Cr	      0.03081      4.35678      4.20313         0.063385     -0.065241     -0.044981
Co	      6.25667      8.72046      6.38541        -0.066120     -0.046932     -0.050283
Co	      4.11746      6.53584      6.34027         0.014076     -0.199954      0.118904
Cu	      6.25869      8.85230     10.46062        -0.009116      0.010491      0.008507
O	      2.03316      2.18897      1.94005         0.005771      0.049575     -0.201913
O	      4.08228      4.49436      2.18616         0.005284      0.010564      0.012713
O	      4.24492      2.36358      4.19425        -0.161733      0.148746      0.003338
O	      6.06284      4.50342      4.19185        -0.173831      0.105501      0.044409
O	      6.24408      2.15379      6.31009         0.063993     -0.015786      0.025186
O	      8.25915      4.21601      6.29150        -0.002321     -0.185074     -0.024436
O	      2.08326      4.33247      4.29332         0.016831      0.023974      0.036780
O	      4.13809      6.64091      4.23468        -0.036981      0.029098     -0.215692
O	      4.11967      4.42084      6.15032         0.092675      0.051476     -0.040480
O	      6.18340      6.55500      6.48244         0.190846      0.101785      0.044153
O	      6.17375      4.46409      8.52708         0.004527      0.015646     -0.024849
O	      8.16665      6.60625      8.41119        -0.090630     -0.039609     -0.022499
O	      2.08136      6.64641      6.37851        -0.184772      0.046159     -0.055038
O	      4.09916      8.77649      6.27776        -0.039726      0.017557      0.060044
O	      4.25578      6.57261      8.41684         0.136185      0.041979      0.177946
O	      6.21549      8.59828      8.44850         0.016149     -0.139193     -0.070082
O	      6.19503      6.41980     10.50068         0.005927     -0.178032     -0.021913
O	      8.25360      8.75253     10.67856         0.118827     -0.029190      0.015330
