# total energy = -246.29950343 eV
 
CRYSTAL
PRIMVEC
0.006061 6.426095 6.235259 
6.408703 0.047419 6.195016 
4.310906 4.294924 -0.006664 
PRIMCOORD
36 1
Li	      6.38056      4.13870      2.17478        -0.043595     -0.070884     -0.051366
Li	      4.34208      2.24271      2.12210        -0.005257     -0.038999     -0.029230
Li	      4.18032      0.10853      4.09259        -0.055990      0.016625      0.028916
Li	      6.33874      2.24380      4.12466        -0.020832     -0.001690     -0.004213
Li	      4.32730      6.37429      2.05311         0.026786     -0.065416     -0.003745
Li	      4.35664      4.25206      4.17562         0.022204      0.022119      0.011598
Li	      4.38961      2.37331      6.16101         0.003891     -0.033139     -0.024647
Li	      6.28196      4.22410      6.20554         0.034698      0.055917     -0.023140
Li	      2.31587      4.28240      6.23904        -0.025512      0.008858     -0.007445
Sc	     10.67024      4.34937      6.20427         0.031043      0.004795      0.105770
Sc	      8.47927      2.22523      6.24692         0.120607     -0.144805     -0.027362
Ti	      6.61961      6.30421      4.17818         0.215268     -0.242750      0.163700
Ti	      2.27991      6.40356      4.12625         0.240678      0.017705      0.212689
Ti	      6.32074      6.57286      8.20661        -0.296973      0.170551     -0.339499
Cr	      8.57963      4.35589      8.26762        -0.180395      0.055881      0.056141
Co	      6.42258      4.33472     10.34319        -0.001045     -0.077059      0.011554
Co	      4.30419      6.38563      6.22477        -0.025646     -0.073768      0.093673
Ni	      4.28701      4.31321      8.23944         0.045197      0.045027      0.099825
O	      2.09270      2.28650      2.18472        -0.025182      0.022486      0.063673
O	      4.18408      4.28216      2.03260         0.037522     -0.009342     -0.030422
O	      4.11355      2.15553      4.15831        -0.301502      0.001634      0.005043
O	      6.45472      4.49304      4.10742         0.023403      0.274687      0.008981
O	      6.46117      2.12246      6.17623        -0.093471     -0.007133     -0.003158
O	      8.60792      4.26797      6.24634        -0.015860     -0.039183     -0.032757
O	      2.12448      4.36315      4.09754         0.077766      0.118856     -0.056525
O	      4.19754      6.41119      4.11714        -0.102780      0.102847      0.108108
O	      4.29585      4.37408      6.27556         0.109968      0.657855     -0.241481
O	      6.43063      6.51784      6.18979         0.084171     -0.030351     -0.031185
O	      6.51314      4.49683      8.29576         0.075863      0.039137     -0.092168
O	      8.49735      6.41619      8.33978         0.076021     -0.021767      0.140503
O	      2.09797      6.44127      6.11936        -0.034759      0.017396     -0.145997
O	      4.20861      8.55526      6.18785         0.046860     -0.316551      0.051524
O	      4.44958      6.41077      8.32479         0.142476      0.044586     -0.116390
O	      6.49325      8.44806      8.29840        -0.116806     -0.182255      0.030712
O	      6.57827      6.48274     10.25687        -0.009572     -0.103537      0.016620
O	      8.62006      8.44397     10.32339        -0.059246     -0.218331      0.051699
