# total energy = -246.71609815 eV
 
CRYSTAL
PRIMVEC
0.006568 6.275048 6.442178 
6.377230 0.006188 6.442131 
4.253240 4.185473 0.002272 
PRIMCOORD
36 1
Li	      4.23930      2.11198      2.38758         0.017300      0.034880     -0.065220
Li	      6.17091      2.10967      4.29993         0.085282     -0.004159      0.002091
Li	      2.06183      4.20956      2.26261        -0.033869      0.024273      0.004108
Li	      2.33546      2.09913      4.31161        -0.101404      0.034028      0.020026
Li	      4.24803      4.00738      4.37414        -0.002493      0.129121      0.010713
Li	      4.25853      2.12218      6.23544        -0.000705      0.033316      0.110487
Li	      6.23841      4.28618      6.43518        -0.051426     -0.013835      0.031703
Li	      6.41516      4.20770     10.65166         0.000434      0.006469      0.001532
Li	      4.30835      4.20868      8.52923         0.026957     -0.050074     -0.086880
Sc	      6.37380      2.21946      8.67698        -0.089077      0.035235      0.016743
Sc	      2.21132      4.08510      6.38806         0.011275     -0.010004     -0.057719
Ti	     10.56167      4.19624      6.42726        -0.123398     -0.014286      0.115685
Ti	      8.52052      8.42086     12.81145        -0.040458      0.191270     -0.123606
Ti	      6.47187      4.10333      2.34655        -0.004885     -0.085311      0.322227
Cr	      4.26942      6.25084      6.36648        -0.029917     -0.030970     -0.071165
Fe	      8.48590      6.22601     10.62084         0.041416      0.082521      0.083479
Co	      6.37170      6.22310      8.61432         0.006529     -0.013478     -0.095709
Cu	      4.20172      0.13683      4.29663        -0.075909     -0.137524      0.059143
O	      2.09550      1.93908      1.98749         0.101342      0.002337      0.096345
O	      4.46322      4.20496      1.93314         0.025606     -0.074754      0.032252
O	      4.24459      2.10016      4.32737         0.056411     -0.147156     -0.091072
O	      6.35604      4.17174      4.14426         0.026832     -0.031354     -0.305974
O	      6.49889      1.98766      6.49662        -0.036963      0.062856      0.016643
O	      8.67731      4.07353      6.58161         0.033391      0.035462      0.032971
O	      2.11419      4.27243      4.34667        -0.011651     -0.137573     -0.040937
O	      4.14059      6.30527      4.32104         0.085018     -0.007908     -0.006722
O	      4.21423      4.28188      6.40503         0.050260     -0.049339      0.011804
O	      6.24734      6.27751      6.46117         0.043235     -0.049152     -0.024462
O	      6.38785      4.20354      8.60833        -0.019924      0.056502     -0.021686
O	      8.51014      6.30265      8.68343         0.020336      0.006581     -0.089611
O	      2.14855      6.31116      6.41497         0.055957     -0.016498      0.036074
O	      4.18717      8.40839      6.41836         0.050468     -0.077406      0.025038
O	      4.16132      6.27589      8.36948        -0.047376      0.006638      0.030911
O	      6.39305      8.45779      8.52779         0.012931      0.085838      0.083086
O	      6.49728      6.28624     10.92739        -0.086118      0.018679     -0.068620
O	      8.49372      8.31525     10.96257         0.004594      0.104777      0.006324
