# total energy = -246.57892872 eV
 
CRYSTAL
PRIMVEC
0.028586 6.335380 6.330787 
6.315755 -0.032271 6.391892 
4.195257 4.248583 -0.006136 
PRIMCOORD
36 1
Li	      4.33673     10.47534      6.33861        -0.013745     -0.035545      0.059696
Li	      2.22015      8.33044      6.35195         0.009703      0.010056      0.048848
Li	      2.11761      6.36452      8.28099        -0.008047     -0.005829     -0.102858
Li	      6.39620      8.40927     10.59854         0.023846      0.008477     -0.042813
Li	      6.26466      6.39552      4.26447        -0.026816      0.043973      0.017681
Li	      6.30248      4.20114      6.38813        -0.052691     -0.019334      0.030307
Li	      4.24060      8.43760      4.39609         0.009952      0.014710      0.038540
Li	      6.19338      8.54040      6.31574         0.073691      0.034583      0.023500
Li	      4.13860      6.49902      6.30167        -0.029325     -0.008263     -0.026812
Sc	      2.06422      4.15344      2.08420        -0.073910     -0.084522      0.070385
Sc	      4.29779      4.30035      4.27831        -0.005620      0.123631      0.099763
Ti	      8.32736      4.13058      4.35842        -0.249635     -0.392422     -0.140524
Ti	      4.30661      2.10448      6.28494         0.250152      0.301422      0.072389
Ti	      6.27344      6.36867      8.41680        -0.094036      0.055020     -0.205174
Cr	      4.21932      8.43956      8.37486         0.111533     -0.011730     -0.030799
Fe	      2.09481      6.41411      4.39819        -0.019985      0.015236     -0.109260
Co	      4.20483      4.22709      8.42399        -0.020080      0.098255      0.011099
Ni	      0.05569      2.10594      2.10169         0.027692      0.060326      0.016908
O	      2.14008      2.13302      2.12004         0.109031      0.015577      0.039574
O	      4.19539      4.15662      2.15704        -0.008281     -0.041477      0.027863
O	      4.22074      2.07498      4.28936         0.007466     -0.094153      0.138953
O	      6.43696      4.23862      4.25149         0.258575      0.000656      0.088887
O	      6.16228      2.06810      6.49048        -0.398716     -0.014854     -0.218428
O	      8.41294      4.26212      6.31014         0.010845      0.126792     -0.203009
O	      2.18126      4.34266      4.15757        -0.020496     -0.021014     -0.037423
O	      4.15394      6.34779      4.13868         0.016299     -0.024678      0.154898
O	      4.22583      4.10319      6.33565         0.040119     -0.301851     -0.216173
O	      6.45076      6.29946      6.51790         0.104264     -0.003522      0.085981
O	      6.31687      4.27146      8.46445         0.158020      0.046431      0.011978
O	      8.35377      6.31279      8.45115        -0.025571     -0.073175     -0.049417
O	      2.11593      6.35545      6.24455         0.012606      0.009225      0.008712
O	      4.22461      8.44195      6.46366        -0.019290      0.026970      0.072071
O	      4.31040      6.37692      8.54532         0.025980      0.048796      0.135173
O	      6.25878      8.31312      8.46875        -0.147412     -0.105674     -0.016897
O	      6.29393      6.32305     10.46107        -0.067772     -0.009341      0.003739
O	      8.41137      8.50356     10.55574         0.031651      0.207250      0.142643
