# total energy = -250.47092884 eV
 
CRYSTAL
PRIMVEC
0.007064 6.319928 6.401187 
6.338898 0.006151 6.401557 
4.234297 4.221883 -0.004083 
PRIMCOORD
36 1
Li	      6.34089      0.09063      6.43028        -0.006809      0.010248      0.015262
Li	      2.08106      2.07605      0.00914        -0.007105     -0.009424      0.012483
Li	      8.47615      4.20997      4.34820         0.002492     -0.056835      0.052424
Li	      6.33692      2.12395      8.34678         0.059336     -0.000379     -0.009499
Li	      2.16674      2.09070      4.25953         0.007968      0.006770     -0.069960
Li	      4.31859      2.08885      6.41649        -0.021690      0.028155     -0.025256
Li	      6.33715      4.14762      6.41276        -0.016986      0.011376     -0.008583
Li	      4.20369      6.34375      6.39688         0.016935     -0.028242     -0.024487
Li	      8.50389      8.40503      8.57115        -0.059068     -0.039072      0.080386
Sc	      6.42438      2.08307      4.41571         0.173002      0.026270     -0.095870
Sc	      2.10854      4.25371      6.40338         0.070437      0.065788      0.078440
Ti	      8.46879      4.17849      8.34121         0.156556     -0.524789     -0.215258
Ti	      4.32236      4.29746      4.31768         0.093018      0.094170      0.244969
Ti	      6.26051      6.24961      8.43486        -0.110191      0.247662     -0.288693
Cr	      4.19008      8.40004      4.31232        -0.087584     -0.058790     -0.186456
Fe	      4.17536      2.10478      2.08918         0.095959      0.172022     -0.082628
Co	      2.16853      0.13769      2.07789         0.066937     -0.424076     -0.095714
Co	      2.13918      6.34127      4.30318         0.035783     -0.125661      0.021980
O	      2.09970      2.22735      2.14117        -0.242562      0.525019     -0.033982
O	      4.08772      4.27331      2.22926         0.136272      0.204130      0.142573
O	      4.29557      2.31270      4.20272        -0.017777      0.047891     -0.134353
O	      6.24495      4.24211      4.16696        -0.302589      0.060182     -0.101867
O	      6.32694      2.12882      6.34328        -0.005287     -0.010556     -0.068524
O	      8.43886      4.24176      6.55172         0.003093      0.044636      0.296438
O	      2.09618      4.17929      4.27491         0.048240     -0.062726      0.032317
O	      4.21534      6.31073      4.25970        -0.216626     -0.056680      0.067725
O	      4.20682      4.23906      6.19114        -0.008607      0.035596     -0.333199
O	      6.35569      6.32439      6.58084        -0.031987     -0.006069      0.342692
O	      6.40232      4.27025      8.63856         0.049066      0.139994      0.026756
O	      8.30386      6.18088      8.60489        -0.085186     -0.007156      0.070521
O	      2.10511      6.29203      6.46811         0.029678      0.044264      0.047685
O	      4.27344      8.41825      6.31004         0.046176      0.014326      0.218873
O	      4.33423      6.30099      8.55127        -0.110732     -0.185531      0.003192
O	      6.38349      8.30438      8.52159         0.120386     -0.279691     -0.013398
O	      6.34163      6.26158     10.59670         0.127469     -0.048315     -0.008049
O	      8.53737      8.44015     10.65894        -0.008017      0.145493      0.041058
