# total energy = -243.99625768 eV
 
CRYSTAL
PRIMVEC
0.006474 6.284853 6.686123 
6.221177 0.052711 6.640577 
4.197084 4.208825 -0.015431 
PRIMCOORD
36 1
Li	      6.27190      8.37962     11.08745         0.039457      0.001894     -0.009046
Li	      4.08094      6.34267      2.39583         0.061159      0.037634      0.040272
Li	      8.22267      4.44852      9.08612        -0.059109     -0.021987      0.021595
Li	      2.04265      2.24115      4.46362        -0.021925     -0.032748      0.004468
Li	      3.92519      4.24412      4.54614         0.033229     -0.052352      0.032320
Li	      8.24508      6.39925      6.81748        -0.005770      0.001163      0.035275
Li	      8.38584      6.21437     10.78850        -0.051599      0.039992     -0.010081
Li	      2.12275      4.11868      6.42175         0.023819     -0.028596     -0.008880
Li	      6.41986      6.27784      8.68356         0.023835     -0.006611     -0.090346
Sc	      4.20640      8.40791      8.91984        -0.048818     -0.006824      0.048741
Sc	      4.16540      6.36533      6.46934        -0.009802      0.010122      0.000711
Ti	      0.16283      6.42532      6.67746         0.165211      0.154398     -0.103727
Ti	      6.22746      4.27662      2.39181        -0.019242      0.220670      0.066613
Ti	      8.39021      4.26395      4.57153        -0.026310      0.055083      0.057704
Cr	      8.34997      8.36757      8.83441         0.060635      0.041860     -0.047045
Fe	      6.20874      4.23634      6.75870         0.056956     -0.136344     -0.134431
Cu	      8.24775      2.19114      6.57676        -0.096264     -0.023828      0.051389
Cu	      0.11553      4.14272      4.35906        -0.031232     -0.043307     -0.079395
O	      2.11525      1.92137      2.32983        -0.010920     -0.229302      0.026972
O	      4.28001      4.20779      2.07161         0.121654      0.036269      0.012562
O	      4.22228      1.91601      4.29595        -0.001818     -0.117870      0.011161
O	      6.40332      4.15518      4.33919         0.059933      0.006769     -0.072888
O	      6.21399      2.06604      6.57571         0.079479     -0.056924      0.019564
O	      8.35410      4.31128      6.46162         0.068746      0.046019     -0.122356
O	      2.02547      4.19820      4.42170         0.145652      0.005823      0.018809
O	      4.13390      6.34229      4.50699        -0.019483     -0.128001     -0.096374
O	      4.20963      4.24182      6.72876        -0.127599     -0.028204     -0.030063
O	      6.19228      6.19676      6.62501         0.040765      0.162058     -0.050862
O	      6.18512      4.22125      8.66201        -0.016763     -0.034506      0.104801
O	      8.31712      6.44080      8.84567        -0.041418     -0.036738      0.019031
O	      2.03416      6.19774      6.93365        -0.132335     -0.075333     -0.005486
O	      4.17714      8.48339      6.83615        -0.050898      0.083886      0.113423
O	      4.06188      6.28997      8.89068        -0.055369     -0.022415      0.052546
O	      6.29763      8.51928      8.98656        -0.005952      0.010475     -0.013506
O	      6.20793      6.28479     11.39836        -0.042843      0.105547      0.170556
O	      8.52137      8.60235     10.83632        -0.105063      0.062226     -0.034028
