# total energy = -140.00776090 eV
 
CRYSTAL
PRIMVEC
2.066324 4.118060 2.066538 
-6.217177 -0.000291 6.218408 
2.097388 -4.149332 2.097986 
PRIMCOORD
24 1
Li	     -3.19361      1.02777      5.26696         0.007647      0.001605     -0.007777
Li	     -3.17407      3.08787      7.31307         0.003187     -0.002470     -0.001232
Li	     -0.98364      1.02844      3.05758        -0.003377     -0.000124      0.001545
Li	     -1.06005      3.08618      5.20050         0.004090      0.001714     -0.006282
Li	     -5.11482      1.02836      7.18650         0.015197     -0.001771     -0.011673
Li	      1.10289      3.08725      3.03849         0.012593     -0.000335     -0.013881
Mn	      1.05688      1.01197      5.18091         0.011250      0.002148     -0.009713
Mn	     -1.02938     -1.04680      5.20037        -0.003142     -0.000867      0.003151
Mn	     -3.11032     -1.04661      7.28107        -0.015749     -0.000349      0.015316
Ni	     -3.09576      1.01225      9.33324        -0.018599      0.001395      0.017014
Ni	     -1.04564      1.01229      7.28285         0.032335     -0.000363     -0.030832
Ni	      1.07118     -1.04677      3.09972        -0.020180      0.000307      0.021181
O	      0.89227     -3.12491      3.12804        -0.054203     -0.103090      0.101263
O	      0.91866     -0.93464      5.21182        -0.032092      0.017130      0.091650
O	     -3.10449     -2.97956      7.24023         0.106424      0.040024      0.124647
O	     -3.09170     -1.05889      9.19503         0.103754     -0.108571     -0.035179
O	     -1.02284     -2.98671      5.09260         0.090482      0.026826     -0.020731
O	     -1.10608     -1.06071      7.14107        -0.009143     -0.112638     -0.030028
O	     -3.06967      0.88605      7.27555        -0.122816     -0.041696     -0.108086
O	     -5.02428     -1.03457      7.26315         0.034715      0.106964     -0.105666
O	     -0.92137      0.89307      5.19414         0.019370     -0.026626     -0.091579
O	     -2.97036     -1.03272      5.27667         0.031939      0.111451      0.010122
O	      1.04279      1.03113      3.27927        -0.100570      0.104710      0.053411
O	     -1.04042     -1.15931      3.25233        -0.093112     -0.015371      0.033360
