# total energy = -245.16673839 eV
 
CRYSTAL
PRIMVEC
0.011780 6.377392 6.330704 
6.373482 0.023166 6.318899 
4.256115 4.250995 0.008416 
PRIMCOORD
36 1
Li	      6.37859      4.22568      2.14965        -0.025082     -0.027386      0.007081
Li	      4.31064      6.34866     10.52506         0.032504     -0.038183      0.005421
Li	     10.51986      6.56503      8.51662        -0.038537      0.016338      0.035549
Li	      8.39530      4.35916      8.55319         0.052892      0.004526     -0.079245
Li	      2.03224      2.30803      4.20387         0.006551      0.024778     -0.023697
Li	      0.19074      4.26206      4.05709        -0.007177      0.009946      0.088812
Li	      8.43015      6.31788     10.44548         0.021632      0.007635      0.009453
Li	      2.09356      4.23000      6.21493        -0.019787      0.006193      0.008280
Li	      8.64444      8.41520      8.51078        -0.006434      0.017956      0.053795
Sc	      4.13130      4.33870      4.13189         0.040764      0.039465     -0.088366
Sc	      6.44663      4.27632      6.41576         0.056225      0.000971     -0.026765
Ti	      4.13658      2.10368      2.15893        -0.249647      0.067695      0.039121
Ti	      6.53398      8.47813     10.43774         0.241493      0.009891     -0.225949
Ti	      4.09792      6.42045      6.30816        -0.295832      0.003986     -0.153649
Cr	      8.47552      6.38907      6.38063         0.036490      0.039049     -0.042370
Fe	      8.51352      2.17176      6.31620        -0.071221      0.032868      0.036889
Ni	      4.27847     10.61390      6.34136         0.080065     -0.084504      0.013313
Ni	      6.44283      6.33586      8.48111        -0.005198      0.021823      0.033773
O	      2.27524      2.07053      2.05994         0.300002     -0.004656      0.178688
O	      4.31148      4.05571      2.06134        -0.028332     -0.122194      0.156854
O	      4.27678      2.15116      4.15130         0.046062      0.006788     -0.016150
O	      6.31874      4.06129      4.27001         0.024004     -0.111760     -0.029801
O	      6.27470      2.11501      6.26717        -0.074450      0.137481     -0.021499
O	      8.53664      4.36983      6.30071        -0.137966      0.088436      0.022654
O	      2.18432      4.27744      4.20514         0.009139      0.015504      0.012312
O	      4.29115      6.38532      4.40541        -0.024609      0.004184      0.138074
O	      4.28162      4.33615      6.29853         0.004264     -0.000703      0.006709
O	      6.42223      6.35910      6.35085        -0.002799      0.007281     -0.104643
O	      6.37814      4.27397      8.42104         0.000837     -0.031805     -0.068079
O	      8.48923      6.41963      8.30798         0.076672      0.000194      0.022611
O	      2.24250      6.37352      6.37327         0.359153     -0.109154     -0.020606
O	      4.30718      8.42245      6.44998         0.045640     -0.177504      0.040313
O	      4.33333      6.50367      8.30704        -0.115325      0.020550     -0.026901
O	      6.29887      8.45400      8.56991        -0.026247      0.073584      0.263497
O	      6.38583      6.53580     10.60370         0.001968      0.095401     -0.069758
O	      8.38610      8.55248     10.61567        -0.307712     -0.044674     -0.175722
