# total energy = -250.08987415 eV
 
CRYSTAL
PRIMVEC
-0.027360 6.441335 6.371668 
6.311622 -0.041873 6.385842 
4.180602 4.275904 -0.000429 
PRIMCOORD
36 1
Li	      4.21882      8.51831      8.49779        -0.066619     -0.063531      0.013832
Li	     10.45110      6.41280      8.55786         0.039519      0.065270      0.025408
Li	      4.22740      4.31775      4.37995        -0.017712      0.050825      0.023803
Li	      4.17312      2.29386      6.36407         0.037727      0.013529     -0.025930
Li	      6.06923      4.36817      6.46413         0.036507      0.028655      0.033663
Li	      2.17821      6.38328      4.19941         0.072857     -0.003041     -0.006761
Li	      4.28787      6.23940      6.43155        -0.043389      0.036764     -0.028744
Li	      4.15670      4.29389      8.33931         0.040620      0.011816      0.066234
Li	      6.26871      6.39342      8.35280        -0.032653     -0.051403      0.044155
Sc	      4.15371      0.04192      4.19126         0.046227     -0.030326      0.031304
Sc	      4.13698      8.45035      4.22277         0.047997      0.047298     -0.130310
Ti	      0.06164      0.06176      0.02431        -0.111560     -0.110264     -0.118106
Ti	      2.03299      2.06445      0.08394         0.097213      0.109230      0.173810
Ti	      8.38357      4.47199      8.53408        -0.199228      0.313735      0.078867
Cr	      6.25191     10.66395      8.50939        -0.015761      0.210757      0.149210
Fe	      6.26407      6.42255      4.29622         0.113524     -0.110754     -0.126380
Fe	      6.42683      8.39903      6.46137        -0.265982      0.061441     -0.218665
Co	      6.23436      2.11298      4.21468        -0.075012      0.003226     -0.052406
O	      2.09665      2.05201      2.00471         0.033691     -0.042182     -0.262630
O	      4.14548      4.28862      1.98280         0.061548     -0.040818     -0.086876
O	      4.15253      2.05272      4.26458         0.157558      0.058745     -0.020070
O	      6.26355      4.21261      4.14381        -0.050257     -0.144651     -0.055379
O	      6.37060      2.01187      6.33823        -0.063013      0.051199     -0.080942
O	      8.47828      4.10045      6.50276        -0.003254     -0.014377     -0.024412
O	      2.08501      4.33628      4.12774         0.037583      0.081903     -0.101519
O	      4.23796      6.48091      4.23948        -0.222890     -0.016170     -0.034623
O	      4.11248      4.26236      6.38340         0.145091      0.076338      0.013711
O	      6.26613      6.50565      6.40770        -0.021924     -0.119025      0.142385
O	      6.48235      4.26389      8.52875         0.120104      0.048013     -0.011439
O	      8.42438      6.25549      8.50076        -0.025485     -0.272139     -0.015936
O	      2.03345      6.43672      6.45206         0.016935      0.002807     -0.033329
O	      4.14206      8.70909      6.31290         0.111662      0.010055      0.058503
O	      4.05621      6.39387      8.56047         0.035320     -0.050146     -0.016785
O	      6.24077      8.67966      8.42174        -0.041301     -0.185257      0.385926
O	      6.23388      6.38803     10.77475         0.081307      0.035471      0.130429
O	      8.37461      8.55500     10.79818        -0.076951     -0.062994      0.080003
