# total energy = -247.87166180 eV
 
CRYSTAL
PRIMVEC
-0.011011 6.366541 6.358713 
6.348215 0.025634 6.320893 
4.247535 4.235487 0.001353 
PRIMCOORD
36 1
Li	      6.35485     10.47709      8.44223        -0.061944      0.011973      0.006639
Li	      4.34124      8.47930      8.45583         0.012882      0.022624     -0.011848
Li	      8.41459      4.33083      8.40003        -0.011682      0.033460     -0.061642
Li	      4.27907      4.23253      4.44371         0.007922      0.043460      0.007991
Li	      4.13975      2.32516      6.41670         0.005011     -0.007459      0.004642
Li	      6.16345      4.39238      6.38730         0.033951     -0.001144      0.081276
Li	      6.52675      8.42526      6.55659        -0.086446      0.023303      0.019261
Li	      4.11337      4.22556      8.25572         0.012312     -0.021064      0.145372
Li	      6.41187      6.42678      8.30757         0.019269     -0.041451     -0.017695
Sc	      6.32601      2.25770      8.34238        -0.026252     -0.017616     -0.032934
Sc	      2.13130      6.28372      4.19945         0.067457     -0.042225     -0.117108
Ti	      4.20928      4.14096      0.13032        -0.138363     -0.054456      0.508799
Ti	      4.17003      6.35770     10.38018        -0.210914     -0.007465     -0.166977
Ti	      2.16206      2.26939      4.26499         0.092595      0.166272      0.019708
Cr	      6.30081      2.17418      4.14877        -0.009627      0.032710      0.027506
Fe	      2.13075      2.10636      0.12860        -0.017989      0.015525      0.062159
Fe	      6.33717      4.29529     10.48236         0.002033     -0.004473      0.017171
Ni	      4.27395      6.24143      6.45111        -0.089995      0.276614      0.013052
O	      2.07116      2.10719      2.29061         0.015866     -0.006739      0.182166
O	      4.22836      4.26748      1.94938         0.004790     -0.052600     -0.517092
O	      4.17486      2.00533      4.22322        -0.027283     -0.043712     -0.005391
O	      6.51243      4.24278      4.22569         0.129555     -0.007970     -0.003005
O	      6.33171      1.99805      6.27010        -0.064610     -0.065074     -0.072640
O	      8.64195      4.16584      6.18190         0.198131      0.095023     -0.025996
O	      2.17054      4.16541      4.21767         0.055328     -0.186074     -0.025025
O	      4.29445      6.33329      4.22484         0.037346     -0.045605     -0.012015
O	      4.22699      4.28926      6.34788        -0.038786     -0.103558      0.018631
O	      6.30482      6.37038      6.15412         0.097447      0.054557     -0.203849
O	      6.38424      4.25849      8.51294         0.015384     -0.012513     -0.208617
O	      8.52535      6.36566      8.53491        -0.007593      0.006495      0.022063
O	      2.03062      6.41961      6.31836        -0.077132     -0.145166     -0.023244
O	      4.26444      8.57239      6.24990         0.071286      0.087451      0.098527
O	      4.24859      6.38199      8.55792        -0.024163      0.006523      0.327809
O	      6.30545      8.50725      8.60712         0.044590     -0.054984     -0.018230
O	      6.29937      6.48626     10.61620        -0.007627      0.003013      0.014652
O	      8.35236      8.56637     10.57863        -0.022752      0.042346     -0.054114
