# total energy = -251.47952877 eV
 
CRYSTAL
PRIMVEC
0.031778 6.353738 6.535037 
6.330836 0.074607 6.490059 
4.233672 4.219838 0.037310 
PRIMCOORD
36 1
Li	      8.27900      2.18104      6.62827        -0.019411     -0.018949      0.035626
Li	      6.34587      4.27698      2.24180        -0.000380     -0.004794      0.007052
Li	      6.32176      2.19034      4.46361        -0.054256     -0.020438      0.025113
Li	      6.32612      2.35313      8.49274         0.016335     -0.025520     -0.031381
Li	      4.31542      2.22143      6.63526         0.029896      0.025801      0.008278
Li	      6.31936      4.11512      6.68224         0.000408     -0.056203      0.012474
Li	      6.36805      4.26229     10.55339        -0.002949     -0.009411     -0.029583
Li	      4.44152      4.22767      8.64731         0.024038      0.041285     -0.051412
Li	      6.38676      6.26668      8.69174        -0.007406      0.026295      0.003726
Sc	      4.28048      4.24095      4.38201         0.061034     -0.068879      0.057080
Sc	      4.28338      6.33036      6.61423        -0.025225     -0.023498      0.025283
Ti	      4.35016      8.48862      8.66439         0.375497      0.053482     -0.032645
Ti	      8.28065      6.55346     10.77224        -0.117752     -0.064301     -0.315323
Ti	      8.44803     10.48513     10.99326        -0.103535     -0.060002      0.326403
Cr	      2.12010      2.16640      4.31176        -0.006422      0.060383      0.013331
Fe	      6.32612      0.21718      6.47595         0.028590     -0.211798      0.095295
Fe	      8.33875      4.30925      8.58526         0.153422      0.028837     -0.058638
Fe	      6.38696      8.44783      6.65642         0.061115      0.099770      0.033349
O	      2.23122      2.10501      2.31687         0.054602     -0.087504      0.022457
O	      4.16738      4.11568      2.28161         0.065717     -0.078786      0.037052
O	      4.16167      2.06634      4.24792        -0.057705     -0.050055     -0.017072
O	      6.45785      4.34416      4.33093         0.127971     -0.012248     -0.001784
O	      6.29714      2.12119      6.51424         0.020430      0.247276     -0.032637
O	      8.43972      4.22112      6.28998        -0.076816     -0.004272     -0.459668
O	      2.17559      4.28179      4.36668         0.009332      0.019708     -0.045600
O	      4.27471      6.32409      4.45924         0.032433      0.070948     -0.063179
O	      4.26534      4.29176      6.45713         0.164196      0.012934      0.004128
O	      6.33727      6.44017      6.38853        -0.023939     -0.009907     -0.103488
O	      6.41584      4.31615      8.62585        -0.252547      0.014566      0.049801
O	      8.48616      6.45189      8.95133        -0.024441      0.073870      0.325613
O	      2.18880      6.32041      6.33714         0.025361      0.017937     -0.080065
O	      4.21026      8.48456      6.75235        -0.201126     -0.018115      0.124888
O	      4.27253      6.48505      8.75048        -0.005109      0.070414      0.070246
O	      6.21441      8.56609      8.77659        -0.389096     -0.039776      0.063793
O	      6.37396      6.39537     10.82691         0.112270     -0.003804     -0.045783
O	      8.45501      8.54289     10.83686         0.005467      0.004752      0.027270
