# total energy = -250.13582901 eV
 
CRYSTAL
PRIMVEC
0.030597 6.336133 6.340262 
6.367423 0.030309 6.340701 
4.263573 4.243154 0.001355 
PRIMCOORD
36 1
Li	     10.59093      4.29203      6.37349        -0.000327      0.004696     -0.037654
Li	      4.30762      6.37691     10.57005        -0.017445      0.041796     -0.012476
Li	     10.47499      6.25378      8.42315         0.006359     -0.077920     -0.005935
Li	      8.58465      4.38139      8.34462         0.005905     -0.032583      0.042888
Li	      4.30957      4.17833      4.24132         0.000965     -0.021903     -0.000434
Li	      8.53767      6.34339      6.54700        -0.028112     -0.000296     -0.016777
Li	      2.25589      4.24991      6.34241         0.053919     -0.092072     -0.043339
Li	      8.49098      8.38941      8.39762        -0.005765     -0.086654      0.038954
Li	      6.48442      6.40803      8.47414         0.017531     -0.013368      0.047350
Sc	      2.09948      2.14061      0.06024        -0.036108      0.059901     -0.086195
Sc	      2.19444      6.26883      4.13916         0.015642     -0.000458     -0.026298
Ti	      4.39707      8.48681      8.36594         0.130059     -0.076466      0.000327
Ti	      6.40826      6.35364      4.23326        -0.016423      0.082009      0.317020
Ti	      6.30017      4.30884      6.54798        -0.144409      0.090724      0.238623
Cr	      6.31453      2.15234      4.22715         0.012484      0.006505      0.076466
Cr	      6.37052      4.31401     10.50928         0.052598     -0.002197     -0.068883
Co	      2.14741      6.32862      8.39596         0.059496     -0.026218     -0.003821
Cu	      4.20500      6.17570      6.53470        -0.020541     -0.193301      0.191467
O	      2.28135      2.15124      2.18050        -0.011073     -0.069310     -0.058857
O	      4.30271      4.10427      2.10091         0.066898     -0.139095     -0.045250
O	      4.25371      2.16410      4.09054         0.018634     -0.003595     -0.119435
O	      6.34803      4.29807      4.25549         0.028653      0.011808     -0.025644
O	      6.36168      2.26062      6.25034         0.075927      0.052224     -0.140750
O	      8.29691      4.21030      6.36054        -0.086735     -0.074416      0.012535
O	      2.03014      4.12521      4.25255        -0.043623     -0.015629     -0.037016
O	      4.42076      6.49892      4.10075        -0.015152      0.081283     -0.031898
O	      4.41193      4.19636      6.32885         0.181752      0.037975     -0.009455
O	      6.50682      6.27854      6.13079        -0.052770     -0.062529     -0.313135
O	      6.32716      4.32603      8.44009         0.000788     -0.006986     -0.212061
O	      8.53875      6.34105      8.52703        -0.018597      0.020468      0.111895
O	      2.08449      6.36590      6.31009         0.042712      0.187792      0.048827
O	      4.25453      8.54710      6.31039        -0.129562      0.005617     -0.005378
O	      4.22544      6.56102      8.53877        -0.043938      0.243538     -0.027445
O	      6.33863      8.43611      8.54068        -0.168298      0.133061      0.077927
O	      6.43515      6.40172     10.57877         0.061176     -0.014726      0.025435
O	      8.51610      8.45548     10.59854         0.007383     -0.049673      0.098421
