# total energy = -251.91743994 eV
 
CRYSTAL
PRIMVEC
0.001619 6.270029 6.326054 
6.457524 -0.066053 6.393425 
4.269992 4.190901 -0.009715 
PRIMCOORD
36 1
Li	      6.39473      0.15392      6.34780        -0.008929     -0.077661      0.009285
Li	      8.41289      2.04739      6.35892         0.015198      0.006889      0.044814
Li	      6.54874      8.20355     10.78516         0.000371      0.048001     -0.002229
Li	      6.30507      2.14941      8.32719         0.060371     -0.012008      0.082558
Li	      8.52262      4.18488      8.35842        -0.069247     -0.014146      0.006269
Li	      8.82884      6.13642      6.51423        -0.050138      0.035962      0.008229
Li	      6.39504      4.14225     10.49628        -0.024920     -0.008960      0.022558
Li	      6.38594      8.35627      6.33178        -0.040334     -0.016010     -0.019304
Li	      8.76497      8.17690      8.54990         0.023961      0.032962      0.004137
Sc	      8.62685     10.29601     10.72920         0.000066      0.015400      0.019233
Sc	      6.58934      6.16067      8.46884         0.083277      0.024739     -0.101028
Ti	      4.29468      8.43557      8.30120         0.036694      0.099220     -0.197330
Ti	      4.21214      4.15967      4.32935        -0.142457     -0.062897      0.084915
Ti	      4.22241      6.21864      6.28231        -0.075162     -0.035369     -0.022839
Cr	      2.15525      6.22476      8.42633         0.003197      0.033925     -0.052685
Cr	      2.14575      2.10654      4.24364         0.074370      0.046099      0.012804
Co	      6.51524      3.97122      6.46863        -0.079095      0.072513      0.065925
Co	      8.53800      6.32684     10.58006        -0.057541     -0.084819      0.024740
O	      2.29666      1.97948      2.23034         0.115475      0.031806      0.005420
O	      4.40611      4.08501      2.18811        -0.047642     -0.117226     -0.037685
O	      4.16858      2.13172      4.16767        -0.082616     -0.034411     -0.066858
O	      6.36361      4.25849      4.12225        -0.011957     -0.009794     -0.080575
O	      6.44504      2.04289      6.38511         0.070424     -0.015691      0.015884
O	      8.54373      4.15765      6.35195         0.073278      0.051233      0.024024
O	      2.31536      4.13253      4.24180         0.131123      0.060083     -0.019565
O	      4.37603      6.21227      4.28428        -0.033785      0.026877      0.013122
O	      4.34416      4.21202      6.26731         0.023644      0.031746     -0.103854
O	      6.25017      6.24771      6.28852        -0.034490      0.057805      0.009942
O	      6.45992      4.17974      8.50757         0.012038      0.018319      0.045181
O	      8.55879      6.23888      8.53426         0.040599     -0.050537      0.033682
O	      2.28509      6.22450      6.38783         0.109678     -0.011013     -0.002340
O	      4.26408      8.26369      6.44994        -0.015144      0.056727      0.162776
O	      4.23426      6.32797      8.40530        -0.035526     -0.018196      0.010440
O	      6.24288      8.38900      8.44042        -0.195320     -0.015396     -0.022690
O	      6.38542      6.22849     10.54270         0.092839     -0.051407      0.040682
O	      8.56524      8.32126     10.59234         0.037699     -0.114765     -0.017641
