# total energy = -248.44935704 eV
 
CRYSTAL
PRIMVEC
-0.032424 6.432977 6.285616 
6.320033 -0.025691 6.278573 
4.202675 4.273044 -0.006239 
PRIMCOORD
36 1
Li	      2.18587      8.45059      6.23165         0.005971     -0.025509      0.058632
Li	      2.25634      6.51457      8.34181         0.018378      0.098569     -0.030491
Li	      4.14841      8.38159      8.41004        -0.004832      0.044604     -0.014866
Li	      4.13836      6.46148     10.35440         0.006873      0.047515      0.031368
Li	      6.37255      6.28319      4.18224         0.009281     -0.020643     -0.024337
Li	      4.29467      4.20344      4.20462        -0.027863      0.005551     -0.042721
Li	     10.34962      8.49722     10.53610        -0.067520     -0.024597      0.011915
Li	      8.40798      6.52384     10.52879         0.002001     -0.019244      0.021710
Li	      4.10440      6.51047      6.34037        -0.000375      0.051042     -0.069006
Sc	      6.29271      6.34083     12.44925         0.020990     -0.042995      0.068437
Sc	      2.12348      4.30498      6.24666        -0.025299     -0.003935     -0.112871
Ti	      6.34444      8.69109     10.36047         0.093535      0.186178     -0.103966
Ti	      4.18501      6.46013      2.25880         0.149519      0.024989      0.462387
Ti	      2.13733      4.22134      2.25015         0.070374     -0.177386      0.361813
Cr	      4.20363      2.11644      6.24004        -0.025418     -0.025361     -0.082873
Cr	      6.19687      6.38916      8.41515         0.083666     -0.050276     -0.030079
Cu	      4.15691      4.45146      8.47951         0.019227      0.119706      0.113972
Ni	      6.29418      4.27271      6.21838         0.013828      0.016648     -0.047343
O	      1.94936      2.27846      2.08436        -0.058306      0.107965      0.011069
O	      4.07678      4.47475      2.04696        -0.101010      0.052984      0.023995
O	      4.33566      2.11193      4.27036         0.020637      0.005695     -0.022395
O	      6.32091      4.14944      4.13975        -0.003768     -0.248819     -0.086805
O	      6.22991      2.13590      6.25098        -0.000505     -0.087299     -0.006229
O	      8.40032      4.34679      6.40464         0.070487      0.028114     -0.023157
O	      2.12275      4.25464      4.09961         0.015826     -0.006412     -0.265882
O	      4.15736      6.45814      4.02859        -0.021685      0.026723     -0.358591
O	      4.22225      4.12905      6.24773        -0.042969     -0.023547      0.055777
O	      6.38246      6.37791      6.36070        -0.034539      0.073226     -0.014095
O	      6.42534      4.22505      8.34427         0.053694     -0.010929      0.083107
O	      8.42172      6.25686      8.32383        -0.129202     -0.109881     -0.030964
O	      2.03175      6.33584      6.32034         0.019102      0.016474     -0.028752
O	      4.23360      8.62888      6.22480        -0.033078     -0.002994      0.070107
O	      4.27586      6.46170      8.33598        -0.035529     -0.021271     -0.002870
O	      6.16686      8.40732      8.41637        -0.039466     -0.049441      0.057041
O	      6.27116      6.50304     10.40468        -0.001515      0.024765     -0.001697
O	      8.20700      8.52506     10.55691        -0.020509      0.019789     -0.031340
