# total energy = -246.17090182 eV
 
CRYSTAL
PRIMVEC
0.071244 6.376772 6.237183 
6.523880 0.005256 6.302310 
4.332238 4.277249 0.020598 
PRIMCOORD
36 1
Li	      6.52178      2.23033      4.22547        -0.076801      0.013522     -0.069502
Li	      4.37672      6.42280      2.29911        -0.000336      0.013233     -0.027446
Li	      6.29388      6.47920      4.28987         0.080040      0.000368      0.056853
Li	      4.24617      4.53147      4.25623        -0.018186     -0.087388      0.006619
Li	      6.52839      4.27661      6.18866        -0.022089      0.071759      0.031871
Li	      4.52713      8.28203      4.22146         0.101291      0.049545      0.027720
Li	      2.51835      6.23194      4.26111        -0.007398     -0.039063     -0.032942
Li	      2.25268      4.23975      6.10440         0.002762     -0.049900      0.015844
Li	      4.35121      6.39074      6.04852        -0.003981     -0.026395      0.126974
Sc	      6.66498      6.41876     12.33824        -0.095596     -0.119125     -0.054262
Sc	      6.43767      4.37568      2.20027         0.008832     -0.080536      0.094714
Ti	      4.48852      8.49640      8.24308         0.273367     -0.093859     -0.134659
Ti	      4.33612      2.21520      6.12623        -0.373376      0.097320     -0.081575
Ti	      4.67608      4.07950      8.40176         0.360155     -0.070706     -0.020151
Cr	      8.60433      4.26869      4.24229         0.086686      0.106199     -0.120910
Cr	      2.18310      4.21516      2.19381        -0.113207      0.176130      0.070624
Cu	      8.70883      8.41005     12.34593         0.048673     -0.077025     -0.033811
Cu	      6.60844      6.40261      8.41053         0.043038     -0.013365     -0.036962
O	      2.35061      2.22238      2.14899        -0.089400     -0.096201     -0.179105
O	      4.26849      4.11488      2.08357        -0.004955      0.034441     -0.014359
O	      4.32629      2.05099      4.24098         0.010715      0.002942      0.086379
O	      6.63078      4.27796      4.21241        -0.033396     -0.021356     -0.018381
O	      6.28410      2.06323      6.30439         0.177265      0.088186     -0.066017
O	      8.73278      4.39644      6.31772        -0.015335     -0.180591      0.014119
O	      2.19255      4.28843      4.07712         0.050654     -0.006877     -0.091662
O	      4.39554      6.39049      4.18337         0.012508     -0.090142      0.093537
O	      4.37403      4.14632      6.46815         0.071241     -0.062101      0.020719
O	      6.77327      6.40673      6.46866         0.239914     -0.008455     -0.209189
O	      6.54026      4.22859      8.36498        -0.164919     -0.151076      0.017670
O	      8.77674      6.47226      8.36865         0.219950      0.059424      0.043448
O	      2.15147      6.35966      6.30788         0.029702      0.244140     -0.066475
O	      4.45921      8.52279      6.40744        -0.080960      0.021560      0.136211
O	      4.30131      6.44243      8.41960        -0.296276      0.107627      0.006008
O	      6.39282      8.61045      8.40973        -0.265314      0.195697     -0.017281
O	      6.38313      6.38672     10.35580        -0.082847      0.009993      0.222534
O	      8.67704      8.65271     10.25325        -0.072418     -0.017927      0.202845
