# total energy = -139.73494715 eV
 
CRYSTAL
PRIMVEC
-2.067158 -4.139251 -2.068174 
4.219870 -6.297012 6.295855 
-4.134551 -2.070636 2.070436 
PRIMCOORD
24 1
Li	     -3.21766     -2.97116      0.94858        -0.003295      0.018193      0.007717
Li	     -0.86656     -5.36409      5.31834        -0.004299     -0.023066     -0.010702
Li	     -1.15102     -0.94698      0.90541         0.003801     -0.009823     -0.026718
Li	      1.20022     -5.31826      3.29352         0.002066      0.007430      0.019948
Li	     -0.87675     -7.41074      3.27205        -0.007275      0.001148      0.000851
Li	     -5.27369     -5.06431      0.92730         0.005113      0.001574      0.002762
Mn	     -3.07356     -7.27149      1.06365         0.002821      0.007081      0.003745
Mn	     -0.96638     -9.38632      5.24752         0.007944      0.002260     -0.002106
Mn	     -3.07372     -5.20399      3.13046         0.003832     -0.006845     -0.008730
Ni	      1.10125     -9.38371      3.17993        -0.000436      0.007466      0.007736
Ni	     -1.00636     -5.20261      1.06190         0.001973      0.003735      0.001715
Ni	      1.10136     -7.31840      5.24466        -0.000464     -0.008793     -0.008206
O	     -1.12857     -5.08152      3.13759        -0.031943      0.032078      0.107443
O	     -0.96998    -11.33719      5.24780         0.116650      0.029193      0.104914
O	      0.93847     -3.13914      3.00893        -0.025874     -0.106102     -0.028508
O	      3.16488     -7.31550      5.12778         0.110088     -0.109944     -0.029180
O	      0.99258     -9.39686      5.25799        -0.025371     -0.102134      0.111317
O	     -3.07751     -7.14087      3.00036         0.110412      0.028811     -0.029706
O	     -2.95080     -3.25479      3.12467         0.023414     -0.030679     -0.105409
O	      1.21004     -7.30522      3.16623         0.023417      0.112725     -0.103111
O	     -3.06923     -5.33425      1.19331        -0.113234     -0.033111      0.030203
O	     -0.96204     -9.38627      3.29652        -0.118219      0.105544      0.030206
O	     -0.96244     -7.43536      5.24734        -0.110481     -0.031842     -0.109749
O	     -0.88381     -3.12640      1.18240         0.029361      0.105101      0.033568
