# total energy = -252.35971514 eV
 
CRYSTAL
PRIMVEC
0.031817 6.335842 6.317383 
6.446990 0.024843 6.324113 
4.316518 4.246648 -0.001642 
PRIMCOORD
36 1
Li	     10.70957      4.30970      6.32084        -0.042397     -0.008112      0.054771
Li	      2.29105      6.30645      8.45117         0.110584      0.045346      0.082667
Li	      4.36306      8.42359      8.39016        -0.034845      0.027610     -0.000097
Li	      6.49760      8.37523     10.55077         0.006884      0.011852     -0.002029
Li	     10.61126      6.36045      8.37963        -0.038311     -0.008999      0.014958
Li	      4.40369      2.13669      6.37432        -0.005817     -0.001937     -0.018804
Li	      6.46145      4.17054      6.40435         0.023119     -0.017480     -0.021493
Li	      8.54742      6.42856     10.42931        -0.017853      0.036681     -0.038105
Li	      4.30877      4.22700      8.39987         0.022947     -0.008739     -0.011094
Sc	      6.54982      6.29198      4.21679         0.143095     -0.138661     -0.159687
Sc	      6.39318      4.32886     10.52628        -0.091876     -0.011940     -0.078262
Ti	      8.37351      2.15435      6.36621        -0.317023     -0.010090      0.014646
Ti	      4.40973      4.18666      4.14058         0.258317     -0.233231     -0.331165
Ti	      2.19389      4.39825      6.45764        -0.108783      0.074536      0.109003
Cr	      8.61291      4.30023      8.39765         0.088346     -0.129552      0.012405
Cr	      6.49707      6.37668      8.38510         0.096426     -0.018863      0.045208
Fe	      4.34070      6.35604      6.36887        -0.551130      0.031646      0.015058
Cu	      4.35333      6.40711     10.46418         0.006749      0.087883     -0.079214
O	      2.19825      2.17654      2.05488        -0.011148      0.036170     -0.015706
O	      4.17636      4.28613      2.26491        -0.051236     -0.000448      0.215481
O	      4.27824      2.27619      4.22941         0.065770      0.165520      0.024046
O	      6.29246      4.25040      4.20259        -0.272262     -0.041427      0.049448
O	      6.57226      2.11581      6.34936         0.260716     -0.013146      0.009359
O	      8.62099      4.07822      6.42467        -0.041197     -0.031674      0.045122
O	      2.18326      4.19988      4.20791        -0.017505      0.087651     -0.013853
O	      4.39840      6.30062      4.28628         0.019546      0.025093     -0.395593
O	      4.12033      4.22609      6.16335        -0.009086     -0.080840      0.009674
O	      6.44342      6.50591      6.31938         0.668388      0.139012     -0.034554
O	      6.56286      4.33191      8.43165        -0.080827      0.005020     -0.001299
O	      8.53149      6.28470      8.38163        -0.001547      0.044355     -0.001633
O	      2.18547      6.34161      6.41924        -0.334430     -0.172215     -0.048795
O	      4.52172      8.55833      6.26636         0.133605      0.054276      0.036479
O	      4.46823      6.33210      8.31811         0.082483      0.008287      0.637777
O	      6.54278      8.44041      8.29719        -0.019442     -0.011481     -0.216073
O	      6.51340      6.34060     10.39702         0.055247      0.121031     -0.011900
O	      8.68593      8.38856     10.77186         0.004491     -0.063133      0.103252
