# total energy = -251.44742190 eV
 
CRYSTAL
PRIMVEC
0.010876 6.230443 6.553892 
6.282294 -0.000263 6.565184 
4.200557 4.173230 -0.012498 
PRIMCOORD
36 1
Li	      4.19411      4.17752      0.13558        -0.013004      0.007522      0.110675
Li	      4.22045      2.21749      2.13224        -0.020301      0.024229     -0.025663
Li	      8.33681      4.21874      8.79275        -0.002813     -0.022118      0.047130
Li	      4.10420      4.26098      4.29343         0.015125     -0.042614     -0.016908
Li	      6.26618      4.20796      6.77540        -0.026186      0.001360      0.035782
Li	      6.29446      4.12486     10.80013         0.003700      0.012265     -0.008616
Li	      2.22629      6.17931      4.29182        -0.030901      0.030407      0.021149
Li	      4.20381      6.15880      6.44496        -0.024105     -0.038154     -0.108728
Li	      4.26895      4.13763      8.71252        -0.025629     -0.003898     -0.066699
Sc	      2.15349      2.11914      0.04763         0.027142     -0.033156      0.033007
Sc	      6.18487      6.26869      4.32501         0.004088      0.024537     -0.033223
Ti	      4.30869      6.18899     10.84679         0.149359     -0.072096     -0.079791
Ti	      4.29473      2.13745      6.69059         0.070407      0.215618      0.079113
Ti	      6.16683      8.37710      6.51332        -0.114493      0.047247     -0.121433
Cr	      6.29900     10.37376      8.70629         0.007626      0.009309      0.024782
Cr	      6.29242      8.31893     10.89169         0.003125      0.015880      0.014920
Fe	     10.43575      6.30818      8.80723         0.010359     -0.086181      0.060132
Ni	      6.25295      6.14759      8.70027         0.000465      0.061270     -0.025705
O	      2.18748      2.02357      2.18716         0.045983     -0.013355     -0.028194
O	      4.31221      4.23985      2.19601         0.009471     -0.094245     -0.010028
O	      4.19178      1.95282      4.52594         0.031076     -0.055657      0.003416
O	      6.39476      4.14416      4.19281         0.029186      0.061686      0.008590
O	      6.22296      2.08652      6.61702        -0.167494     -0.005419     -0.092765
O	      8.39223      4.19986      6.39026        -0.002432      0.030414      0.009035
O	      2.09530      4.15118      4.59145        -0.010709     -0.016921      0.135671
O	      4.22274      6.23731      4.40273        -0.008280     -0.012786      0.043410
O	      4.11137      4.00375      6.54765        -0.008290     -0.182790      0.025142
O	      6.35190      6.31987      6.51612         0.019168      0.032706     -0.040565
O	      6.29209      4.13043      8.74678        -0.005990      0.063638     -0.002961
O	      8.28613      6.19581      8.55868         0.113242      0.022350     -0.253314
O	      2.13101      6.18758      6.67232        -0.007386     -0.104437      0.006433
O	      4.26776      8.33126      6.57094         0.154022      0.022868      0.021169
O	      4.17120      6.19439      8.91906        -0.092603      0.009629      0.141290
O	      6.28881      8.34397      8.51004         0.004324      0.045117     -0.009043
O	      6.20313      6.26878     10.80626        -0.185788     -0.044923      0.089781
O	      8.36053      8.41380     11.05328         0.048532      0.090696      0.013006
