# total energy = -254.81980685 eV
 
CRYSTAL
PRIMVEC
0.008914 6.442789 6.264996 
6.350763 0.000004 6.273636 
4.229042 4.296278 0.004857 
PRIMCOORD
36 1
Li	      2.12543      0.09724      2.15492         0.037887     -0.019918      0.023606
Li	      4.12681      2.08258      2.18100        -0.027878     -0.151307     -0.047498
Li	      8.41301      4.36487      4.20616        -0.028286     -0.058210     -0.082505
Li	      2.13815      4.26615      2.23066        -0.022850      0.014884     -0.053609
Li	      2.23797      2.21966      4.12892        -0.012401      0.079128     -0.019931
Li	      4.15669      4.22102      4.12977         0.013473      0.033721      0.038563
Li	      8.42839      6.35439      6.26038         0.010275     -0.041109      0.044161
Li	      0.13930      4.29846      4.11921         0.029545     -0.098414      0.019823
Li	      2.11296      6.34940      4.15161         0.050541      0.012036     -0.048002
Sc	      2.10740      4.31513      6.13359         0.013938      0.177267     -0.092330
Sc	      8.51426      8.62497      8.46673        -0.028718      0.049832      0.045839
Ti	     10.51985     10.70109     12.50960         0.033421     -0.090830      0.195413
Ti	      6.16936      2.25421      4.14410        -0.139117      0.451618     -0.060854
Ti	      4.27860      6.37558      2.28392        -0.175499     -0.060423      0.436026
Cr	      8.46556      8.58391     12.51250         0.090132     -0.045260     -0.037325
Cr	      4.23978      6.46165      6.23375        -0.125960      0.045356      0.050293
Fe	      6.40394      4.36834      6.23312        -0.108223     -0.139244     -0.148290
Fe	      6.43872      6.41135      8.42766         0.085779     -0.123675      0.145498
O	      1.96627      2.12338      2.00523        -0.063453      0.024120      0.024833
O	      4.22108      4.46657      1.95826         0.029108      0.019505     -0.078205
O	      4.33965      2.13336      4.18930         0.168043     -0.022186      0.005853
O	      6.31691      4.13622      4.19786         0.089235     -0.290363      0.081975
O	      6.41135      2.07973      6.22755        -0.002800     -0.073135      0.014303
O	      8.51323      4.15436      6.27921         0.193534      0.052330     -0.106146
O	      2.12017      4.30200      4.20713         0.012890     -0.029101      0.093326
O	      4.25562      6.41880      4.13467         0.021289      0.053428     -0.411238
O	      4.20332      4.45517      6.31019        -0.092822     -0.004988      0.036170
O	      6.26925      6.49503      6.25367         0.135320      0.071566      0.346127
O	      6.35475      4.14645      8.35184         0.048211      0.018448     -0.100125
O	      8.57377      6.50967      8.33988         0.530636      0.006954     -0.097871
O	      2.17028      6.49847      6.25741        -0.055286      0.000795     -0.005621
O	      4.16312      8.56213      6.26412         0.006793      0.076022     -0.023221
O	      4.33573      6.42186      8.24230        -0.490897      0.030629     -0.078363
O	      6.39149      8.59861      8.45798        -0.141360      0.009948      0.160870
O	      6.37021      6.54665     10.56524        -0.046734      0.031086     -0.345604
O	      8.35944      8.61013     10.49716        -0.037766     -0.010511      0.074058
