# total energy = -245.83576012 eV
 
CRYSTAL
PRIMVEC
-0.015339 6.388484 6.301210 
6.493730 0.013518 6.272472 
4.337343 4.247505 0.001356 
PRIMCOORD
36 1
Li	      6.50476      4.23738      2.30519        -0.044753      0.019349     -0.013084
Li	      4.35245      2.12414      2.29213         0.046769     -0.026704     -0.032426
Li	      4.09380      0.24353      4.16719        -0.001602     -0.023716      0.024144
Li	      2.40233      2.02053      4.24675         0.013097      0.019797      0.038687
Li	      4.47248      4.07000      4.31341         0.019478      0.042378     -0.038555
Li	      4.28358      2.26396      6.08151         0.006266     -0.015251      0.017785
Li	      6.26982      4.34716      6.06645        -0.031004      0.001059      0.037709
Li	      0.07968      4.21786      4.20070         0.017216     -0.017535      0.004577
Li	      2.30414      4.18058      6.20860         0.013150     -0.036321     -0.058665
Sc	      8.62068      8.57581     12.43816         0.050177      0.064062      0.036653
Sc	      2.17386      6.24445      4.21696         0.075353     -0.050514      0.024039
Ti	      4.29998     10.55728      6.27677        -0.153367     -0.188753      0.065819
Ti	      0.14619      2.12257      2.17572         0.278944     -0.119327      0.135604
Ti	      6.38968      6.43040      8.23127        -0.165634      0.124550     -0.476460
Cr	      2.20343      4.21747      2.13895         0.028625     -0.035268     -0.010762
Cr	      4.31073      4.27499      8.35477        -0.038734      0.025769     -0.020767
Ni	      6.34787      2.24763      4.17988         0.059672     -0.048118     -0.011593
Ni	      4.35469      6.35162      6.24850        -0.066762      0.188767     -0.117017
O	      1.99857      2.14471      2.06030        -0.288863     -0.004226      0.028743
O	      4.33279      4.43624      1.98295         0.107553      0.106146     -0.042240
O	      4.36990      2.14088      4.17353        -0.133408     -0.003024      0.007279
O	      6.51780      4.20917      4.19904         0.014521      0.172324     -0.003405
O	      6.54475      2.04895      6.40709        -0.018945      0.011616      0.063861
O	      8.88258      4.23377      6.34867         0.222065     -0.001945     -0.043701
O	      2.10819      4.26835      4.13055        -0.011181      0.001031      0.073107
O	      4.26171      6.40711      4.07978        -0.031901      0.023308     -0.214366
O	      4.28304      4.36550      6.38564        -0.015745     -0.178722      0.069212
O	      6.44097      6.39786      6.40121         0.044908     -0.000250      0.458542
O	      6.38085      4.27116      8.37820        -0.092104     -0.010855     -0.005437
O	      8.58954      6.44751      8.38317        -0.015932      0.036628     -0.032656
O	      2.07144      6.44244      6.28688        -0.089444     -0.022944      0.016299
O	      4.24356      8.63533      6.34986         0.010594      0.136675     -0.014902
O	      4.48553      6.32267      8.34575         0.181910     -0.008306      0.112202
O	      6.58352      8.31009      8.41526         0.000652     -0.147337     -0.080862
O	      6.54676      6.40721     10.59600        -0.015945     -0.070355      0.055613
O	      8.61611      8.44052     10.43435         0.024374      0.036014     -0.052979
