# total energy = -255.90562991 eV
 
CRYSTAL
PRIMVEC
0.022883 6.340965 6.337581 
6.224048 0.015801 6.344540 
4.168345 4.250623 -0.008166 
PRIMCOORD
36 1
Li	      8.29600      2.18065      6.36667         0.021619      0.014842      0.004448
Li	      2.06719      0.05507      2.12431         0.007983      0.009635     -0.022535
Li	      2.16144      4.24538      2.06319        -0.054056      0.034468     -0.034066
Li	      6.27582      6.29692      4.28736        -0.041531      0.020664      0.062989
Li	      4.13523      4.29098      4.26772        -0.011150     -0.028364     -0.007953
Li	      4.12166      2.18325      6.35413         0.033320     -0.033032     -0.029084
Li	      6.23843      4.27442      6.28704         0.008310      0.062579     -0.012431
Li	      2.17185      6.27069      4.27865        -0.024910     -0.057103      0.001696
Li	      4.14164      4.22307      8.28993         0.020566     -0.029250      0.077196
Sc	      4.15966      4.25883      0.05113        -0.079974      0.072411     -0.048981
Sc	      6.27268      2.25369      4.26956         0.011442     -0.022790      0.057470
Ti	      0.11680      2.20299      2.16529         0.029532     -0.024223      0.063617
Ti	      6.26077      4.18182     10.42929         0.199134     -0.063912      0.182435
Ti	      6.39540      6.24756      8.43325         0.315989     -0.086709     -0.093616
Cr	      4.09112      2.13973      2.13658        -0.156817      0.095908     -0.033925
Cr	      8.28234      4.29950      4.24184         0.039980     -0.013666      0.080707
Cr	      2.12367      4.21015      6.35053         0.024285      0.018375     -0.068869
Co	      4.15049      6.26237      6.30952        -0.107841     -0.021796     -0.174177
O	      2.01042      2.13944      2.11062        -0.079694      0.027132      0.028836
O	      4.12516      4.24720      2.10726         0.037210      0.007033      0.094009
O	      4.17431      2.06931      4.10969        -0.024234      0.037634      0.036358
O	      6.31564      4.22766      4.20099        -0.065702      0.082455      0.014773
O	      6.24119      2.09716      6.37980         0.019295      0.091825      0.063934
O	      8.34495      4.26941      6.20402         0.007724      0.005985      0.065845
O	      1.91485      4.21432      4.34291        -0.162665      0.003961     -0.042417
O	      4.13304      6.41250      4.14308         0.049466     -0.102909      0.107371
O	      4.07517      4.25381      6.32702         0.062226      0.156112     -0.028946
O	      6.24562      6.43019      6.48813         0.225223      0.008357      0.020692
O	      6.25861      4.23154      8.39083        -0.017561      0.031165      0.016565
O	      8.29060      6.37274      8.50091        -0.185807     -0.019024     -0.073716
O	      2.07383      6.22587      6.34872        -0.135700     -0.019711     -0.015619
O	      4.19621      8.44127      6.39628         0.051886     -0.155540      0.005266
O	      4.26821      6.45999      8.52928         0.019245     -0.009151     -0.112117
O	      6.17135      8.37713      8.43598        -0.049510     -0.000095     -0.088040
O	      6.21746      6.36501     10.54537        -0.047659     -0.032394     -0.138182
O	      8.41097      8.60673     10.51930         0.060376     -0.060875      0.040468
