# total energy = -254.44763627 eV
 
CRYSTAL
PRIMVEC
0.005110 6.414180 6.186029 
6.394772 0.023712 6.167011 
4.295576 4.296151 -0.016065 
PRIMCOORD
36 1
Li	      4.35328      8.49803      8.23954        -0.016121      0.003830      0.020995
Li	      4.52624      6.48558     10.16945         0.047150      0.029324     -0.000712
Li	      6.38665      8.47346     10.19388         0.012523      0.053077      0.011831
Li	      4.30488      6.47628      2.12915        -0.047165     -0.041321     -0.004583
Li	      6.36323      6.46957      4.14077         0.004881     -0.066256      0.006375
Li	      0.00787      4.30709      4.15038        -0.043795      0.011485      0.011759
Li	      6.23867      8.45617      6.22255        -0.023470     -0.055178      0.000060
Li	      4.46091      6.47406      6.15467        -0.007764     -0.052633      0.023995
Li	      6.34208      6.51908      8.27443         0.041014     -0.000405     -0.030645
Sc	      2.25243      6.38057      8.28418         0.015355     -0.004506      0.130300
Sc	      8.52813      6.44779      6.17698        -0.007435     -0.099902     -0.061242
Ti	      8.55816      2.24913      6.16584        -0.056515      0.149356      0.006930
Ti	      4.16795      4.30944      3.98037         0.026869     -0.101072     -0.068690
Ti	      6.46326      4.30346      6.18527         0.150494     -0.017492     -0.021088
Cr	      6.40616      6.42416     12.32351        -0.106931      0.048806      0.067614
Cr	      8.53671      6.44476     10.27756        -0.005572      0.078913     -0.060034
Cr	      4.27060      4.32231      8.26680        -0.017734      0.010180      0.037091
Cu	      1.96783      4.13445      2.24335        -0.104839     -0.097943      0.118952
O	      2.12439      2.08412      1.89345         0.030580     -0.014836     -0.024558
O	      4.35757      4.30964      2.06112         0.099370      0.006799      0.007083
O	      4.22086      2.35711      4.12780         0.001468      0.138383     -0.053221
O	      6.23217      4.32445      4.16053        -0.058239     -0.000638      0.000402
O	      6.42763      2.14391      6.12918         0.013135     -0.039484      0.012226
O	      8.59305      4.32065      5.97737         0.100181     -0.011403     -0.071400
O	      2.24219      4.38337      4.23963        -0.029443      0.000466     -0.008224
O	      4.17644      6.26646      4.14327        -0.025589     -0.042548     -0.003281
O	      4.41475      4.24383      6.18173        -0.038405      0.056609     -0.016140
O	      6.48534      6.27885      6.16431        -0.052150     -0.013548      0.011315
O	      6.31703      4.25051      8.09702        -0.011869      0.032328     -0.009701
O	      8.56381      6.58431      8.26923         0.003548      0.045023      0.049209
O	      2.01008      6.55756      6.14636         0.070274      0.019079     -0.006718
O	      4.16015      8.70674      6.17659        -0.077043      0.039400      0.009055
O	      4.27106      6.34199      8.25521         0.023463      0.020781     -0.015104
O	      6.56187      8.64050      8.18135        -0.033529     -0.013679     -0.017002
O	      6.51557      6.43660     10.36861         0.092008     -0.030381     -0.045267
O	      8.57168      8.48708     10.29423         0.031292     -0.040613     -0.007582
