# total energy = -250.47840787 eV
 
CRYSTAL
PRIMVEC
0.032486 6.383590 6.253209 
6.504229 0.035618 6.250421 
4.356221 4.273774 0.004162 
PRIMCOORD
36 1
Li	      6.53626      0.10706      6.25091         0.005347     -0.030811     -0.013268
Li	      8.55834      2.12418      6.23757        -0.088898     -0.032600     -0.032372
Li	      2.24090      6.39558      8.26096         0.027108      0.005497     -0.015330
Li	      6.54230      2.16957      4.24526         0.025969      0.028296     -0.041750
Li	      6.51219      2.18138      8.24664        -0.027550      0.032482      0.007677
Li	      6.50089      6.39682      4.22506        -0.019452      0.006868      0.022147
Li	      4.36357      6.41112      6.28744        -0.055999     -0.008635      0.011317
Li	      4.39564      4.36879      8.33699         0.035545      0.093143      0.030069
Li	      6.50387      6.38672      8.33853        -0.011485     -0.030378      0.028287
Sc	      4.49660      4.37423      4.16455         0.069597      0.088412      0.037215
Sc	      8.62616      6.53105     10.40455        -0.009758      0.054977      0.013526
Ti	      4.32296      8.43026      8.35163        -0.019590     -0.331088     -0.100087
Ti	      8.65187      4.25973      8.27168        -0.088470     -0.046545     -0.205867
Ti	      6.50135      8.52772      6.38068        -0.095518      0.120995      0.233959
Mn	      8.74537     10.59824     10.45196         0.025447     -0.101258      0.018979
Cr	      4.38779      2.18037      6.27396         0.017022     -0.040190     -0.008962
Co	      4.36776      8.49770      4.16617         0.016481     -0.019963      0.007200
Cu	      6.53582      4.27217      6.26024         0.013136      0.090962     -0.003921
O	      2.33317      2.25646      2.00474         0.110594      0.081247      0.002204
O	      4.23336      4.14629      2.12431        -0.023151     -0.023398      0.029303
O	      4.37086      2.20106      4.12349        -0.009617      0.076738     -0.004857
O	      6.50754      4.33987      4.27277        -0.098075      0.029069     -0.094459
O	      6.36768      2.27763      6.26182        -0.048458     -0.057040     -0.006955
O	      8.82489      4.42523      6.36287         0.124728      0.065577      0.271836
O	      2.23124      4.28554      4.10024         0.122269     -0.033075     -0.019672
O	      4.31859      6.40637      4.16301         0.042907      0.066522     -0.006088
O	      4.14557      4.19069      6.28125        -0.203818      0.008636     -0.020863
O	      6.67046      6.50950      6.25966         0.058396      0.095783      0.015587
O	      6.70590      4.25385      8.28087         0.135013      0.011132      0.162811
O	      8.71826      6.27580      8.28714         0.030575     -0.087366     -0.032983
O	      2.18638      6.18936      6.22352        -0.031021     -0.165223     -0.003202
O	      4.52171      8.47039      6.33701         0.149378     -0.015870      0.065024
O	      4.31902      6.56318      8.32484        -0.006948      0.275801     -0.046414
O	      6.37081      8.56217      8.25397        -0.087834     -0.010916     -0.307512
O	      6.57563      6.32475     10.40770         0.039060     -0.123545      0.003720
O	      8.71249      8.51720     10.41501        -0.122931     -0.074237      0.003702
