# total energy = -247.60790003 eV
 
CRYSTAL
PRIMVEC
-0.028465 6.438023 6.277685 
6.450935 -0.044043 6.293302 
4.269716 4.271536 0.001499 
PRIMCOORD
36 1
Li	      6.48130      2.14632      4.25022         0.022341      0.017804      0.031735
Li	      4.26746      6.49066      2.30043        -0.019357      0.055599     -0.118394
Li	      8.41150      4.31543      8.55545        -0.075080      0.072634     -0.099807
Li	      6.16167      6.54698      4.19361         0.020453      0.006972     -0.016232
Li	      4.12917      4.51799      4.18718        -0.054182      0.031972     -0.014015
Li	      6.44001      4.25260      6.28392         0.015252      0.028669     -0.020755
Li	      0.14291      4.06040      4.08687         0.022147      0.009204     -0.044841
Li	      2.37069      6.25789      4.13963         0.033678     -0.068312     -0.051412
Li	      4.24511      6.45096      6.03423        -0.036566      0.057461      0.018844
Sc	      6.41507      6.39246     12.39920        -0.093332      0.051631      0.047710
Sc	      8.64845      8.50332      8.49833         0.162379      0.050106      0.021898
Ti	      6.37047      4.29413      2.20577        -0.135239      0.134179      0.343597
Ti	      4.25585      2.13025      2.19394        -0.191016      0.010295      0.019255
Ti	      4.30109      2.13550      6.22884        -0.063289      0.024026     -0.002245
Mn	      2.14245      4.27203      6.07170         0.021526     -0.029159     -0.064998
Cr	      6.44455      6.36292      8.39881        -0.039025     -0.084647      0.003912
Co	      8.54256     10.65357     10.49047        -0.099945      0.132076     -0.053940
Ni	      8.51836      8.53902     12.52388        -0.053862      0.053633      0.064033
O	      2.30193      1.96281      2.08900         0.209834     -0.184515      0.040250
O	      4.45144      4.07628      2.11739         0.230110     -0.196656      0.046028
O	      4.30020      2.05150      4.16843         0.063894     -0.358608      0.032788
O	      6.50879      4.22324      4.02527         0.323855     -0.093815     -0.208951
O	      6.31308      2.03477      6.33026        -0.115817     -0.089572      0.014697
O	      8.61905      4.30267      6.35411         0.103997      0.064746      0.051159
O	      2.12903      4.28257      4.11496         0.014971      0.000363      0.022859
O	      4.26572      6.41667      4.16429        -0.008529      0.008515      0.000533
O	      4.32656      4.04358      6.32731         0.013586     -0.252059     -0.010427
O	      6.60110      6.36145      6.37655         0.182507     -0.008835      0.030477
O	      6.36322      4.39754      8.38350        -0.096847      0.093333     -0.013803
O	      8.44899      6.44036      8.28640        -0.074955      0.074663     -0.015839
O	      2.05895      6.47944      6.43370        -0.036912     -0.027035      0.032873
O	      4.18655      8.61511      6.50178         0.019689      0.006282      0.081388
O	      4.27616      6.46153      8.30481         0.027280      0.048087     -0.101693
O	      6.32856      8.56363      8.37117        -0.033099     -0.026467      0.031399
O	      6.33733      6.45251     10.39355        -0.265616     -0.038040     -0.051506
O	      8.48889      8.62699     10.52057         0.005166      0.425473     -0.046578
