# total energy = -249.95947751 eV
 
CRYSTAL
PRIMVEC
0.012837 6.354344 6.348914 
6.265613 0.029190 6.332374 
4.212950 4.260530 -0.015873 
PRIMCOORD
36 1
Li	      4.13721      4.19876      0.11640         0.132547     -0.020693      0.043926
Li	      4.18250      8.44797      8.39501         0.035207      0.008557     -0.000490
Li	      4.18989      6.38186     10.46614        -0.065485      0.010701     -0.064536
Li	      8.52959      4.29860      8.30389         0.003262     -0.014827      0.022550
Li	      4.20699      4.21765      4.10326         0.061841     -0.035691     -0.043050
Li	      8.33233      6.32601      6.45629        -0.035189     -0.027222      0.056679
Li	      4.23935      6.40923      6.51974        -0.025773      0.002115      0.045392
Li	      4.20824      4.39983      8.38750        -0.023550      0.031360     -0.000250
Li	      6.13628      6.34560      8.42928        -0.027524      0.006329     -0.003896
Sc	      6.14739      2.16069      4.18577        -0.036564      0.154578     -0.229671
Sc	      2.17666      6.31814      4.11621         0.051810      0.081992     -0.057282
Ti	      2.19045      2.04211      4.19280         0.135614     -0.394413     -0.194767
Ti	      6.25397      4.35014     10.49999        -0.115823     -0.025512     -0.360815
Ti	      2.25232      4.25127      6.48382         0.203933      0.314194      0.581617
Mn	     10.42369      6.30934      8.31151         0.036561     -0.042690     -0.018462
Cr	      2.16240      2.18146      0.04247         0.063763     -0.255669      0.146612
Co	      2.14816      6.35458      8.41160        -0.162718     -0.154395      0.194296
Co	      6.29638      4.34039      6.43946         0.166962     -0.184028     -0.106094
O	      2.12709      2.18671      2.18879         0.047201     -0.109984     -0.014314
O	      4.32852      4.22071      2.13017         0.274656      0.077215     -0.126091
O	      4.09517      2.14580      4.24453        -0.176080     -0.006298      0.060789
O	      6.24890      4.39091      4.26488         0.026448      0.057986      0.075653
O	      6.40022      2.17467      6.21047        -0.010397      0.091621      0.085823
O	      8.30971      4.14422      6.34765        -0.621532      0.156975      0.016670
O	      2.00481      4.21150      4.34191        -0.015810      0.005404     -0.016147
O	      4.31026      6.55361      4.21565         0.011953      0.073398      0.021619
O	      4.08065      4.25918      6.34534         0.151660     -0.000831      0.015051
O	      6.30158      6.52996      6.17156         0.011519     -0.055013     -0.031441
O	      6.22095      4.28861      8.60993         0.051646      0.041905      0.243376
O	      8.37203      6.34822      8.49062        -0.034873     -0.051101      0.020173
O	      2.13570      6.27196      6.29399         0.028922      0.077592     -0.039454
O	      4.20801      8.52497      6.19873        -0.032889      0.033469     -0.082364
O	      4.09924      6.36781      8.48413        -0.206290      0.060107     -0.086726
O	      6.29795      8.43411      8.37278         0.031016      0.183135     -0.198499
O	      6.32660      6.34756     10.54537        -0.027082     -0.107161      0.037866
O	      8.44460      8.46822     10.68361         0.091060      0.016895      0.006258
