# total energy = -139.73436499 eV
 
CRYSTAL
PRIMVEC
-2.070423 -4.136336 -2.069517 
4.227878 -6.289008 6.290465 
-4.140561 -2.067319 2.067533 
PRIMCOORD
24 1
Li	     -3.00498     -3.24214      1.16004        -0.014080     -0.018846     -0.005122
Li	     -3.19649     -9.23468      3.05294        -0.021475      0.000068      0.018202
Li	     -2.96207     -5.27053     -0.90942         0.019966      0.016759     -0.001099
Li	      0.98639     -5.09811      3.01490         0.014317     -0.004768     -0.020140
Li	     -1.10733     -7.17607      3.03205         0.001364     -0.004112      0.006677
Li	     -5.05152     -5.29161      1.14870        -0.001951      0.005918     -0.002710
Mn	     -1.00908     -3.12859      3.12893        -0.002297      0.000120     -0.001095
Mn	     -0.96583     -9.37616      5.23772         0.000026     -0.004740     -0.000238
Mn	      3.17477     -5.23931      5.24022         0.001653      0.003178      0.005431
Ni	     -3.07946     -5.19568      3.12921         0.000251     -0.001565     -0.002872
Ni	     -1.00912     -5.19413      1.06300        -0.000281      0.006021      0.006090
Ni	      1.10465     -7.30706      5.23994         0.001013     -0.002938     -0.002046
O	     -0.99898     -5.08707      3.13836         0.107570      0.019954      0.107495
O	     -1.09808    -11.31119      5.23705        -0.031527      0.035298      0.098166
O	     -1.12927     -7.26290      1.05840        -0.021708     -0.109473      0.110363
O	      3.18131     -7.18521      5.11868         0.098744      0.032267     -0.031324
O	      0.98222     -9.38061      5.11787        -0.028785     -0.099067     -0.030364
O	     -3.08093     -7.26215      3.00968         0.110738     -0.109746     -0.022069
O	     -5.02992     -7.26566      1.06177         0.022829      0.110249     -0.110239
O	      1.22665     -7.42854      3.16611         0.029208     -0.029638     -0.099733
O	     -3.07803     -5.31464      1.06261        -0.111133     -0.021459     -0.109745
O	     -0.83378     -9.37694      3.30269         0.032058      0.100010      0.035043
O	     -0.97207     -7.42790      5.36186        -0.099200     -0.030051      0.031371
O	     -1.01945     -3.11870      1.17040        -0.107301      0.106564      0.019959
