# total energy = -246.81719274 eV
 
CRYSTAL
PRIMVEC
0.050366 6.330428 6.511655 
6.349020 0.030494 6.530474 
4.245604 4.246420 0.007858 
PRIMCOORD
36 1
Li	      6.50738      6.48943     12.99916        -0.020510      0.004706      0.048980
Li	      8.40687      8.36233     12.96717        -0.021353     -0.001075      0.044193
Li	      2.30468      6.19475      8.52806        -0.012337     -0.014807     -0.048126
Li	      4.23922      6.32245     10.77735        -0.013122      0.000436     -0.098356
Li	      6.51122      8.43534     10.90135         0.017884     -0.027514     -0.024306
Li	      6.32604      4.19434      6.51544         0.027931      0.058066     -0.052559
Li	      2.26646      4.32927      6.64895         0.012176     -0.078200     -0.005265
Li	      4.15199      6.24774      6.66150         0.042569     -0.020900      0.005437
Li	      4.13834      4.36493      8.59903         0.048307     -0.066682      0.004649
Sc	      4.37833      8.36607      8.53863         0.046563     -0.009111     -0.053409
Sc	      4.28283      4.21347      4.46426         0.010638     -0.113706     -0.096453
Ti	      8.44751      4.30287      8.52652        -0.010815      0.122136     -0.312584
Ti	      6.41690      6.27990      4.47163         0.228616     -0.148259      0.348475
Ti	      4.18710      8.56438      4.57389        -0.153481      0.290495      0.258964
Mn	      6.34434      2.17531      8.53284        -0.059076      0.020499      0.044237
Cr	      2.14441      6.34416      4.49390         0.004108     -0.032548     -0.055641
Cu	      4.32297      2.17271      6.50164        -0.098726     -0.033725     -0.037611
Cu	      6.36063      6.38920      8.69473        -0.001121      0.039780     -0.038475
O	      2.12679      2.31089      2.26567        -0.021949      0.094371     -0.011247
O	      4.07956      4.23407      2.24944        -0.079568      0.016581     -0.013943
O	      4.08344      2.15775      4.17099        -0.142370     -0.009451     -0.147684
O	      6.32296      4.42184      4.28229        -0.006183      0.164222     -0.001635
O	      6.26678      2.17314      6.48504         0.157668      0.032832     -0.008955
O	      8.44159      4.37603      6.70844        -0.021594     -0.077976      0.297501
O	      2.08955      4.22466      4.33775         0.006024     -0.006518     -0.011361
O	      4.30574      6.40118      4.34229         0.025511     -0.003372      0.033974
O	      4.28048      4.16291      6.45339         0.040528      0.100987      0.028660
O	      6.50382      6.37489      6.29024        -0.087662     -0.017586     -0.498265
O	      6.49666      4.32393      8.87429         0.025045     -0.094583      0.049093
O	      8.43620      6.26121      8.95991         0.067559     -0.027296      0.250835
O	      2.18130      6.33802      6.42232        -0.017618     -0.013502      0.068103
O	      4.28139      8.43625      6.41928        -0.019804      0.010322     -0.206446
O	      4.34144      6.36509      8.65271        -0.142246     -0.082838      0.013340
O	      6.37276      8.40797      8.70951         0.059862      0.133334     -0.013786
O	      6.48001      6.22033     11.00646        -0.013392     -0.226654      0.156552
O	      8.66821      8.39904     10.91954         0.121936      0.017535      0.083114
