# total energy = -253.49007556 eV
 
CRYSTAL
PRIMVEC
-0.016365 6.285324 6.554751 
6.403418 0.005842 6.532542 
4.273128 4.179780 -0.000604 
PRIMCOORD
36 1
Li	      4.39936     10.38121      6.62402        -0.000194     -0.015819      0.022387
Li	      2.16126      6.16085      8.56364         0.053714     -0.021466     -0.066670
Li	      2.10328      4.15423      2.32897        -0.019879      0.009947      0.025147
Li	      2.07216      2.28660      4.31980        -0.033933     -0.100640      0.004055
Li	      4.16658      4.15792      4.37144         0.010871      0.040401      0.037748
Li	      0.13293      4.14167      4.45507        -0.007775      0.007818      0.055794
Li	      6.24054      8.45845      6.51675         0.032004     -0.050873     -0.037376
Li	      4.17769      6.36668      6.68483        -0.004980     -0.021323      0.002221
Li	      4.21032      4.24838      8.68997        -0.001592      0.013967     -0.042998
Sc	      2.25246      8.36136      6.55800         0.099765     -0.064355     -0.096714
Sc	      2.10708      6.15160      4.41149         0.097942     -0.012905      0.057976
Ti	      4.36317      6.14598      2.28400         0.146666     -0.177214      0.494107
Ti	      4.25642      2.09057      6.51483        -0.060612      0.059060     -0.186025
Ti	      6.29057      4.24783      6.51000        -0.218432      0.102212     -0.125030
Mn	      4.25365      6.24333     10.80398        -0.021028      0.006731     -0.055360
Cr	      6.40512      6.28753      8.70696        -0.043966      0.002852      0.045402
Fe	      4.29655      2.16713      2.12777        -0.080178      0.071154      0.078686
Co	      6.38491      8.40128     10.78264         0.013331      0.081159      0.009663
O	      1.98525      2.09152      2.14045        -0.211972     -0.025440     -0.026234
O	      4.28311      4.26913      2.16722         0.005006      0.311524      0.028371
O	      4.33086      2.09742      4.60237        -0.023995      0.023974      0.246162
O	      6.39471      4.18280      4.61992        -0.006976     -0.033467      0.240240
O	      6.30908      2.16772      6.67571        -0.073638      0.086095      0.024797
O	      8.41804      4.28036      6.55745        -0.035944      0.107852     -0.000919
O	      2.13637      4.19678      4.38444         0.019937     -0.005472     -0.025969
O	      4.21968      6.30891      4.12928         0.004675     -0.052362     -0.472374
O	      4.38753      4.06078      6.56060         0.215175     -0.115071     -0.007048
O	      6.52923      6.21113      6.64281         0.126591     -0.142517      0.038228
O	      6.38667      4.17688      8.52178         0.009871     -0.009542     -0.057275
O	      8.56007      6.26050      8.61748         0.000465      0.022624     -0.024904
O	      2.14682      6.32777      6.48136        -0.046437      0.008440     -0.015421
O	      4.21048      8.42973      6.56542        -0.035310     -0.013155     -0.102322
O	      4.39261      6.37386      8.68819         0.031820     -0.140321     -0.001365
O	      6.41678      8.29670      8.74351         0.089983     -0.042312     -0.001654
O	      6.42389      6.24731     10.70589        -0.005427      0.075275     -0.085146
O	      8.42537      8.32859     11.01520        -0.025549      0.013170      0.019819
