# total energy = -251.51509701 eV
 
CRYSTAL
PRIMVEC
0.024786 6.517153 6.355571 
6.320931 0.047136 6.334412 
4.253355 4.370734 -0.008812 
PRIMCOORD
36 1
Li	     10.36889      4.42220      6.29455        -0.039704     -0.066762      0.010588
Li	      8.46041      8.79895     12.57583        -0.001571     -0.030784      0.024049
Li	      8.55733     10.80860     10.64964        -0.009453     -0.030397     -0.078353
Li	      8.45297      4.47513      8.41553        -0.017344      0.018683      0.022699
Li	      8.49018      6.48225      6.49789        -0.033909      0.021257      0.032433
Li	      6.29720      4.44634     10.49064         0.015633     -0.036260     -0.022392
Li	      2.17396      4.40231      6.35125         0.010268      0.019292      0.011242
Li	      8.52223      8.65780      8.47271        -0.000063     -0.064634      0.001157
Li	      6.37179      6.51551      8.44372        -0.001405     -0.021131      0.041638
Sc	      2.15771      2.27696      4.26199        -0.082290      0.066388     -0.029943
Sc	      4.25739      4.40090      4.25170        -0.018087      0.020474     -0.006595
Ti	      4.30905      8.68974      8.31222         0.092415      0.049593     -0.219177
Ti	      6.49651      4.36091      6.47858         0.194954     -0.120655      0.355732
Ti	      8.23914      6.64684     10.57701        -0.210670      0.006882     -0.263014
Mn	      2.16171      6.48235      8.38708        -0.029577     -0.000559      0.042627
Cr	      4.28176      6.55986      6.35945         0.056723     -0.019971     -0.108765
Fe	      6.32479      2.23847      8.37009         0.005534     -0.089775      0.010972
Cu	      6.29257      2.16878      4.22616         0.034223     -0.056153      0.033136
O	      2.14746      2.18044      2.15358         0.199127     -0.025622      0.032236
O	      4.22900      4.22862      2.09297         0.059618     -0.107298     -0.032821
O	      4.24278      2.28561      4.11734        -0.030126      0.023129     -0.000864
O	      6.34589      4.54853      4.28572         0.005817      0.186949      0.050544
O	      6.27590      2.41560      6.24643         0.042841      0.206153     -0.032238
O	      8.34161      4.43543      6.32363        -0.277577     -0.031189     -0.034686
O	      2.19464      4.38220      4.29315         0.014763      0.037492     -0.007998
O	      4.26496      6.55107      4.29765         0.021466     -0.045956      0.119111
O	      4.35151      4.53624      6.33561        -0.034101      0.028332     -0.011810
O	      6.32871      6.45786      6.33804        -0.025616     -0.036332      0.000310
O	      6.36137      4.38282      8.35120         0.021519      0.063310     -0.390974
O	      8.57437      6.53095      8.64778        -0.208873      0.051505      0.221945
O	      2.27596      6.51748      6.20994        -0.006954     -0.019456     -0.056669
O	      4.25365      8.61671      6.44816         0.047958     -0.007884      0.347656
O	      4.26905      6.71663      8.37482        -0.009266      0.138385      0.024025
O	      6.22118      8.70035      8.51849        -0.157607      0.026012     -0.070335
O	      6.42738      6.41486     10.62259         0.277170     -0.081504     -0.010646
O	      8.32320      8.56834     10.55117         0.094163     -0.071514     -0.004821
