# total energy = -250.63268668 eV
 
CRYSTAL
PRIMVEC
-0.009658 6.445826 6.388234 
6.486640 0.006072 6.372484 
4.322907 4.284556 0.006263 
PRIMCOORD
36 1
Li	      6.39779      0.10117      6.20508        -0.064239      0.057447      0.024578
Li	      6.55563      8.41514     10.69785         0.048890     -0.006401     -0.007872
Li	     10.54250      6.52335      8.47158         0.041714      0.003471      0.005698
Li	      8.61609      4.51023      8.45733        -0.015278     -0.039697     -0.005930
Li	      8.67080      6.38177      6.62757        -0.002337      0.017098     -0.016530
Li	      6.32743      4.52238     10.44338        -0.085396      0.008704     -0.080194
Li	      6.48169      8.55655      6.41577        -0.007115     -0.001556      0.011353
Li	      8.72379      8.35337      8.64473        -0.008147      0.034601      0.043714
Li	      6.66727      6.41622      8.60693        -0.008187      0.040195      0.013778
Sc	      6.47244     10.71407      8.50080         0.106815      0.053484     -0.109886
Sc	      4.37012      6.44572      6.36345        -0.075319      0.055979      0.070263
Ti	      4.41034      8.60624      8.45296         0.106154     -0.083369     -0.288072
Ti	      4.23481      4.22083      4.31007        -0.237890      0.003816      0.115641
Ti	      6.60601      4.18319      6.53935         0.129592     -0.215272      0.392124
Mn	      8.48490      6.47994     10.56021        -0.045831      0.001852      0.081839
Cr	      2.15732      2.14146      4.23511         0.015409      0.040299     -0.123232
Fe	      8.59861      2.21219      6.30176         0.072353     -0.092663      0.169492
Ni	      4.44238      6.39448     10.64276        -0.107559      0.048565     -0.028903
O	      2.31240      2.10421      2.16789         0.054441     -0.033035      0.136299
O	      4.38222      4.15286      2.26787         0.044696     -0.131030      0.096833
O	      4.21699      2.22689      4.15645        -0.042722      0.159622     -0.051050
O	      6.41011      4.38799      4.24993        -0.068194      0.030072      0.013548
O	      6.46328      2.30835      6.37722        -0.085045      0.279869      0.045068
O	      8.50587      4.34615      6.31658        -0.211195      0.099334      0.152306
O	      2.34729      4.19393      4.30348         0.292880     -0.123146     -0.008521
O	      4.42579      6.25153      4.25662         0.107690     -0.123797      0.010108
O	      4.44025      4.32090      6.22497         0.041555     -0.007140     -0.213772
O	      6.42633      6.32843      6.23979         0.006378     -0.015943     -0.024805
O	      6.48173      4.31520      8.34723        -0.008848     -0.027597     -0.377518
O	      8.63329      6.43987      8.53609         0.007147     -0.000592     -0.011035
O	      2.26413      6.42829      6.43863         0.047284     -0.094772      0.042728
O	      4.31896      8.54649      6.56672         0.110584     -0.029644      0.246437
O	      4.27205      6.58891      8.51094        -0.019002      0.095628     -0.092675
O	      6.28685      8.64383      8.52609        -0.196387      0.014653      0.005537
O	      6.41371      6.44925     10.66762         0.064157      0.041556     -0.036140
O	      8.64854      8.65109     10.68365        -0.009046     -0.060588     -0.201209
