# total energy = -253.54339315 eV
 
CRYSTAL
PRIMVEC
0.007551 6.365751 6.310456 
6.419107 0.025552 6.292495 
4.304029 4.256721 -0.007713 
PRIMCOORD
36 1
Li	      8.58148      8.53119     12.49189         0.010725     -0.020470     -0.097858
Li	      4.34872      8.44280      8.46207         0.043201     -0.033836     -0.062793
Li	      4.38230      0.14431      4.19234         0.023346      0.008084     -0.031789
Li	      6.34162      2.04347      4.22438        -0.010271      0.009616     -0.006827
Li	      2.23223      2.17967      4.20187        -0.008729     -0.045016     -0.064020
Li	      4.30194      2.11208      6.20818         0.015171      0.000772      0.036800
Li	      0.08873      4.34585      4.26885        -0.048098      0.028615      0.094802
Li	      2.06006      6.32236      4.26353        -0.017210      0.059234      0.058897
Li	      2.05333      4.31324      6.24459        -0.048858      0.064839      0.075663
Sc	      4.15599      4.08398      4.22623         0.310140     -0.074766      0.123934
Sc	      4.23783      6.52065      6.22427        -0.053338      0.015075      0.047940
Ti	      0.06599      2.15768      2.15852         0.403337     -0.019246      0.132657
Ti	      6.57563      4.28368      6.17202        -0.272678      0.156621     -0.612475
Ti	      8.49211      8.47373      8.56003        -0.258529     -0.046258      0.363032
Mn	      2.18991      0.02520      2.15881        -0.042470      0.069335     -0.063666
Cr	      6.45464      6.35326     12.52343         0.173759     -0.000466     -0.087793
Fe	      8.54125      4.32088      8.44333        -0.014805     -0.191201      0.166282
Fe	      6.46602      6.40135      8.54366        -0.055065      0.070711     -0.065674
O	      1.94734      2.18868      2.12787        -0.299078     -0.405784     -0.050879
O	      4.28784      4.39472      2.01594        -0.049710      0.039094     -0.001628
O	      4.27513      2.14944      4.12139         0.007785     -0.033673      0.076132
O	      6.40002      4.23358      4.32226         0.036602      0.001397      0.456870
O	      6.43468      2.18080      6.40606        -0.017861     -0.013738     -0.018519
O	      8.52415      4.27946      6.29559        -0.078953     -0.067277      0.211250
O	      2.16473      4.21244      4.21503        -0.116487      0.191572     -0.328787
O	      4.28513      6.32387      4.09758        -0.021648      0.021021     -0.057676
O	      4.44509      4.32027      6.28702         0.054154     -0.079738     -0.024891
O	      6.40431      6.19362      6.41095         0.036864     -0.185613     -0.242830
O	      6.32327      4.15241      8.31082         0.012486     -0.061167     -0.111164
O	      8.68505      6.46941      8.36854         0.114666      0.464172      0.056057
O	      2.09500      6.40453      6.30208        -0.082788     -0.007210     -0.080089
O	      4.29280      8.56472      6.32597         0.024123      0.097581     -0.034578
O	      4.31567      6.24384      8.32539         0.004382     -0.058648      0.025569
O	      6.60597      8.49227      8.35279         0.224470      0.071394      0.004690
O	      6.43422      6.38404     10.55212        -0.009952     -0.006284      0.429618
O	      8.59811      8.52242     10.33586         0.011314     -0.018743     -0.316257
