# total energy = -255.45145022 eV
 
CRYSTAL
PRIMVEC
0.013241 6.406944 6.336990 
6.278571 0.041056 6.309375 
4.218005 4.284716 -0.004836 
PRIMCOORD
36 1
Li	      4.18647      2.19706      2.10133        -0.039049      0.052012     -0.026802
Li	      4.19565      6.43585     10.50721        -0.024506      0.021810     -0.036057
Li	     10.39181      6.52490      8.42169        -0.029756      0.022742     -0.012420
Li	      8.39243      4.40821      8.40959         0.021479      0.092279      0.005904
Li	      4.18851      4.31567      4.11795        -0.010021      0.045605     -0.154537
Li	      8.46246      6.45999      6.38114         0.022555      0.035010      0.042092
Li	      6.28430      4.22408      6.42976        -0.038224     -0.085439      0.082002
Li	      6.26585      4.25787     10.43649        -0.027584     -0.076682     -0.037508
Li	      4.31770      4.22824      8.42964         0.060451     -0.068559      0.036734
Sc	      2.07763      2.16309      4.13482         0.033993     -0.040624      0.016673
Sc	      6.28363      6.28219      8.45725        -0.035990      0.001397     -0.051891
Ti	      8.41708      2.36660      6.32533        -0.017393      0.332688     -0.016642
Ti	      6.17089      2.24127      4.17652        -0.228207      0.075960      0.094369
Ti	      2.21363      4.29724      6.35982         0.413428     -0.156756      0.002651
Mn	      4.25801      6.40794      6.34837         0.122665     -0.011805      0.005018
Cr	      2.16912      6.39639      4.18305         0.029004     -0.015468      0.028530
Cr	      6.31009     10.67104      8.43382         0.024657      0.012175      0.054811
Co	     10.44301      4.34771      6.37963        -0.102691      0.111028     -0.005184
O	      2.11188      2.03424      2.01179         0.020707      0.014326     -0.126499
O	      4.32313      4.26401      2.05256        -0.017591     -0.027422     -0.068231
O	      4.29343      2.14883      4.22614         0.189798      0.034572     -0.040581
O	      6.30983      4.27797      4.12411         0.010021     -0.076204     -0.014509
O	      6.39934      2.17572      6.18440         0.097747      0.067844     -0.064444
O	      8.35086      4.18051      6.29583         0.117607     -0.328169      0.022137
O	      2.09817      4.30912      4.33147         0.004666      0.001645      0.050131
O	      4.21767      6.41932      4.20601        -0.045156     -0.028031     -0.034569
O	      4.04017      4.27129      6.35146        -0.315684     -0.026326      0.050029
O	      6.36664      6.54751      6.27806         0.050557      0.083352      0.015088
O	      6.28492      4.35356      8.41539         0.043608     -0.061973      0.034979
O	      8.36429      6.44186      8.54978         0.029102     -0.008308     -0.028706
O	      2.10223      6.40890      6.32256        -0.133599      0.020662     -0.032450
O	      4.14957      8.59598      6.30754        -0.100481      0.005458      0.018767
O	      4.15940      6.41710      8.46396        -0.053600     -0.019886      0.040585
O	      6.29354      8.60772      8.45120        -0.019850     -0.047487     -0.000382
O	      6.39667      6.56601     10.55421        -0.035316      0.012847      0.045988
O	      8.32164      8.47670     10.67182        -0.017346      0.035732      0.104926
