# total energy = -253.12165100 eV
 
CRYSTAL
PRIMVEC
0.014773 6.449911 6.298031 
6.501948 0.057032 6.256816 
4.383131 4.319955 -0.009120 
PRIMCOORD
36 1
Li	      4.36252      4.35482      0.23108        -0.038821      0.021103     -0.077431
Li	      6.29938      4.39710      2.03457         0.038657     -0.012689     -0.004339
Li	      4.26842      2.47432      2.01026        -0.036444     -0.034816      0.031222
Li	      4.42502      6.21856      2.05176         0.038510      0.070788     -0.004788
Li	      2.49326      4.31506      2.15751        -0.033393      0.019110     -0.016489
Li	      4.20854      4.44327      3.96585        -0.013271      0.038945      0.068057
Li	      8.80029      6.40837      6.31150         0.103998     -0.094053     -0.020240
Li	      2.28235      6.24595      4.19056         0.044513      0.030050      0.007531
Li	      2.13783      4.37274      6.23896        -0.022614      0.054363      0.004977
Sc	      6.49746      8.59155     10.45682        -0.060990      0.022567     -0.064927
Sc	      6.62615      4.37441      6.40585        -0.029938     -0.011835     -0.036049
Ti	      4.33573      6.53694     10.33636        -0.098157      0.203416     -0.109855
Ti	      4.30937      6.53874      6.26694        -0.150547      0.040856     -0.073739
Ti	      8.65484      8.44551      8.30535        -0.123266     -0.234826     -0.149756
Mn	      2.17593      2.26188      4.02900         0.005982     -0.010737      0.005318
Cr	      2.20945      2.14548      0.08202         0.001053     -0.022435      0.050267
Cr	      6.53170      4.38549     10.44965         0.062635     -0.050659      0.007609
Cu	      6.68204      6.56796      8.26708         0.210425      0.132495     -0.106280
O	      2.19466      2.19277      1.99678         0.024779      0.023710     -0.124975
O	      4.39387      4.32624      2.12691        -0.003893     -0.001184      0.016072
O	      4.41501      1.98538      4.20173         0.074450     -0.203019     -0.006468
O	      6.72604      4.27540      4.23978         0.094684     -0.044986      0.039628
O	      6.65915      2.25515      6.21344         0.029712      0.006198      0.012061
O	      8.66564      4.26396      6.15331        -0.023173      0.005649      0.002603
O	      1.99277      4.34797      4.20111        -0.038601      0.070303      0.015440
O	      4.34873      6.58170      4.33520        -0.046526     -0.000777      0.181369
O	      4.41140      4.46238      6.40005        -0.000040     -0.042851      0.145283
O	      6.34615      6.43282      6.20541        -0.040743      0.018520      0.038022
O	      6.29296      4.33498      8.45808        -0.041944      0.005741      0.033402
O	      8.79071      6.62426      8.30720        -0.008301      0.170096      0.020399
O	      2.39956      6.56909      6.29126         0.143820     -0.015702     -0.021631
O	      4.29537      8.50506      6.24750        -0.027602     -0.081750      0.007137
O	      4.31715      6.36983      8.43998        -0.028453     -0.008986      0.168922
O	      6.74723      8.70856      8.41859         0.078784     -0.020454     -0.031163
O	      6.33008      6.43620     10.55393        -0.088863     -0.028879      0.033867
O	      8.74347      8.73026     10.42549         0.003575     -0.013275     -0.041053
