# total energy = -257.32764010 eV
 
CRYSTAL
PRIMVEC
0.018159 6.363153 6.562840 
6.422994 0.044892 6.535526 
4.289118 4.231135 0.023095 
PRIMCOORD
36 1
Li	      6.46219      6.45851     12.99630        -0.008859     -0.020326     -0.048936
Li	      6.47210      8.50629     10.93487         0.000337     -0.030268     -0.004210
Li	      6.43266      6.39815      4.53696         0.025167      0.056719      0.049385
Li	      8.48347      6.42936      6.63868        -0.022062     -0.023724      0.045129
Li	      6.41010      4.26348     10.80370         0.035592     -0.043805     -0.048529
Li	      8.50312      6.40711     10.74737        -0.079901     -0.006332     -0.038187
Li	      4.33810      6.39980      6.46925         0.033820      0.001883      0.009005
Li	      8.50691      8.42481      8.88515         0.010471     -0.014167      0.016548
Li	      6.62730      6.34522      8.71445        -0.022540      0.038711     -0.019655
Sc	      4.33304      8.45780      8.74097         0.033286     -0.036188     -0.016396
Sc	      6.40120      4.34967      6.62944        -0.014800      0.069011      0.060276
Ti	      8.58041      8.39475     12.95361        -0.053094     -0.136145     -0.164502
Ti	      4.53737      6.44494     10.93435         0.632795      0.028801      0.032337
Ti	      4.24808      4.45877      4.44185        -0.253288      0.290388      0.212733
Mn	      6.41026      8.42474      6.55895        -0.001197      0.049744      0.000981
Cr	      6.41901      4.23958      2.27056         0.012184     -0.026598     -0.027297
Cr	      8.52817      4.33089      8.77005        -0.008340      0.000204     -0.025556
Fe	     10.60879      6.44857      8.74156         0.015634      0.046681     -0.002169
O	      2.14174      2.12022      2.06841        -0.014966     -0.096466     -0.023256
O	      4.35144      4.19537      2.35100         0.029062     -0.014886      0.080504
O	      4.29096      1.99163      4.30924         0.008952     -0.081541      0.004170
O	      6.30229      4.24537      4.31829         0.023584      0.019640     -0.006151
O	      6.64036      2.16982      6.54855         0.183821      0.011863     -0.073728
O	      8.54890      4.16838      6.34816         0.000055     -0.088518     -0.131051
O	      2.35560      4.22626      4.40708         0.221984      0.041848      0.010513
O	      4.29079      6.29119      4.40319         0.031490     -0.367547      0.005475
O	      4.35132      4.22692      6.35011         0.042687      0.030236     -0.222628
O	      6.41113      6.34291      6.58105         0.042054     -0.056577     -0.026027
O	      6.46549      4.31587      8.67899         0.002157     -0.026649     -0.064768
O	      8.61645      6.35363      8.73973        -0.033378      0.015487     -0.062668
O	      2.15596      6.45058      6.72788         0.004668      0.239183      0.078625
O	      4.15004      8.47143      6.66057        -0.128866      0.022004      0.038380
O	      4.15701      6.37754      8.97747        -0.058449      0.013049      0.095859
O	      6.39798      8.61188      8.73691        -0.044351      0.077150      0.031907
O	      6.35031      6.39372     10.91227        -0.660207     -0.003143      0.014357
O	      8.60380      8.57777     11.06619         0.014498      0.020279      0.219528
