# total energy = -139.45178542 eV
 
CRYSTAL
PRIMVEC
-4.134900 -4.130121 -0.000538 
2.094865 -0.026593 6.181299 
-6.261489 2.124200 -0.016371 
PRIMCOORD
24 1
Li	     -5.17785     -0.99151      5.06382         0.003899     -0.007140      0.022054
Li	     -3.17269     -1.03481      3.07836         0.002496     -0.001872      0.003961
Li	     -3.15672      1.03783      5.13653        -0.001080     -0.004214     -0.006030
Li	     -1.03602     -1.04273      1.09514        -0.019802      0.019137      0.003958
Li	     -5.17380     -3.02251      3.04402        -0.000312     -0.002540      0.009480
Li	     -3.04424     -3.14937      1.08722         0.000935      0.000367     -0.016665
Mn	     -3.09013     -3.10267      5.12952        -0.003931      0.005159     -0.003320
Mn	     -3.14702      1.07476      1.04800        -0.000809      0.003356     -0.006520
Mn	     -1.02525     -1.05067      5.12768        -0.012701      0.010229     -0.006666
Ni	     -5.20490      1.04267      3.05737         0.010795      0.034631     -0.001382
Ni	     -5.20275     -1.00110      1.08015         0.010233     -0.010102     -0.044989
Ni	     -7.25123     -0.99881      3.05739        -0.039907      0.000280      0.009880
O	     -7.41962     -0.86852      5.17181        -0.026368      0.023031      0.085744
O	     -5.22964     -0.98280      3.09602         0.121068     -0.117235      0.150832
O	     -5.31609      1.19539      5.15056        -0.033599      0.025546      0.097939
O	     -3.12685     -0.90243      0.90854         0.103244      0.021854     -0.024970
O	     -3.13339      1.06336      2.93255         0.109650     -0.103014     -0.050298
O	     -5.30709     -3.07239      0.91005        -0.022834     -0.110159     -0.023213
O	     -7.26481     -1.13925      0.97607        -0.102546     -0.047306     -0.106118
O	     -2.96935     -1.14904      5.15544         0.023465     -0.015853     -0.091098
O	     -5.06455      1.05926      0.98164         0.050780      0.107032     -0.114819
O	     -1.00681     -1.05398      3.23611        -0.103284      0.099561      0.052424
O	     -5.07308     -3.20602      5.21353         0.016709     -0.016580      0.007333
O	     -3.07476     -3.13098      3.23887        -0.086102      0.085830      0.052484
