# total energy = -251.79345550 eV
 
CRYSTAL
PRIMVEC
0.016443 6.407339 6.220497 
6.390174 0.007721 6.229694 
4.262534 4.279898 0.002774 
PRIMCOORD
36 1
Li	      6.38847      4.25307      2.26088        -0.011919     -0.046423      0.007372
Li	      4.20651      6.43147     10.25026        -0.040855      0.002117     -0.018900
Li	      6.39507      8.61689     10.24421        -0.014868      0.074568      0.030218
Li	      4.24796      6.34323      2.21849        -0.025506     -0.009711      0.026364
Li	      2.24780      4.27330      2.19215         0.087363     -0.047291      0.011319
Li	      2.11477      2.09031      4.04483        -0.021458     -0.033965     -0.062397
Li	      4.27260      4.34047      3.99306        -0.010982      0.037524     -0.051138
Li	      2.18805      6.34807      4.06758         0.016920     -0.051500     -0.054164
Li	      6.38900      6.48705      8.35878         0.001242      0.021320      0.046297
Sc	      6.40406      4.27563      6.09751        -0.046996     -0.035514      0.070335
Sc	      0.10455      4.23416      4.02382         0.059978      0.004055     -0.090189
Ti	      6.38671      0.10410      6.25436         0.044811      0.025383     -0.068040
Ti	      2.10617      2.09491      0.05597         0.073008     -0.051793      0.247477
Ti	      8.48758      6.35624      6.17730        -0.157723     -0.000849     -0.101982
Mn	      2.15099      4.28109      6.19563        -0.014819      0.045227     -0.038176
Cr	      4.27177      6.40370      6.22800         0.030769     -0.019286      0.004956
Cr	      8.47122      8.57748      8.39326         0.023521      0.019210     -0.017032
Ni	      4.30802      2.12510      2.22900         0.023676     -0.057248      0.026406
O	      2.17931      2.17541      1.89693        -0.098039     -0.000704     -0.234195
O	      4.26905      4.17510      1.91151         0.042394      0.117474     -0.117221
O	      4.28554      2.15220      4.30598        -0.005121      0.015442      0.252988
O	      6.38568      4.28280      4.18449         0.008619      0.006774      0.026902
O	      6.40512      2.09253      6.24303         0.014562     -0.086407      0.015232
O	      8.55715      4.32716      6.25704         0.037284      0.051332      0.029794
O	      2.10596      4.30155      4.13884         0.029517     -0.001869     -0.092486
O	      4.26727      6.44621      4.26384        -0.000396      0.018097     -0.057412
O	      4.29143      4.32183      6.32494        -0.008008     -0.034467      0.013910
O	      6.43118      6.37489      6.21895         0.033063     -0.033691      0.022085
O	      6.24917      4.26973      8.28026        -0.040134      0.004449      0.017030
O	      8.52848      6.55282      8.11544         0.000451      0.019863     -0.020797
O	      2.15530      6.53146      6.21865        -0.005093      0.148474      0.014208
O	      4.17867      8.48739      6.25827        -0.089961     -0.007028     -0.061789
O	      4.27972      6.37555      8.22279        -0.018106     -0.095730      0.027796
O	      6.43931      8.53421      8.29736         0.102403     -0.005873      0.031345
O	      6.40965      6.33298     10.59799         0.011691     -0.016691      0.115623
O	      8.55734      8.57642     10.45070        -0.031288      0.024733      0.048261
