# total energy = -254.49966820 eV
 
CRYSTAL
PRIMVEC
-0.011523 6.373579 6.393573 
6.392397 -0.040581 6.423823 
4.245195 4.252241 -0.010567 
PRIMCOORD
36 1
Li	     10.46053      4.26259      6.33996         0.088245     -0.012447     -0.012804
Li	      8.39135      2.25343      6.37740         0.025533     -0.076365      0.022565
Li	      4.23294      2.17027      2.05977         0.000897     -0.001506     -0.030458
Li	      8.66438     10.46390     10.86809        -0.056005     -0.049634      0.031579
Li	      6.40942      2.05564      8.26174        -0.034022      0.032215      0.095549
Li	      8.67340      6.14722      6.47279        -0.043399      0.038952      0.024699
Li	      6.58659      4.02512      6.47335        -0.037593      0.045911      0.046965
Li	      6.28229      8.50411      6.49795        -0.013335     -0.000790     -0.026179
Li	      6.45219      6.27271      8.67130        -0.014008     -0.032133     -0.032955
Sc	      4.29433      6.53687      6.44975         0.009299      0.032529     -0.021968
Sc	      4.35515      4.11491      8.52373         0.021499     -0.102546     -0.055268
Ti	      2.03657      6.33456      8.39956         0.028964     -0.144720     -0.262949
Ti	      2.23484      2.07080      4.31155         0.188378     -0.093970      0.272331
Ti	      4.23351      4.25482      4.37698         0.093146     -0.012578      0.167317
Mn	      6.37026      2.03260      4.40561        -0.094034     -0.027186     -0.109553
Mn	      8.40909      6.34898     10.75057         0.012305      0.050567      0.018744
Cr	      8.48755      4.22008      8.44745        -0.010269      0.078567     -0.042379
Co	      6.37230      4.30097     10.71553        -0.336195      0.079406      0.022401
O	      2.11506      2.08236      2.29423         0.013167     -0.004412     -0.019942
O	      4.29193      4.24164      2.27470         0.036137      0.002981      0.000890
O	      4.13973      2.27131      4.28072        -0.164477      0.096156     -0.034350
O	      6.23026      4.36338      4.16883        -0.066798      0.142696     -0.071678
O	      6.38189      2.11006      6.38060        -0.003520     -0.023914      0.067483
O	      8.50668      4.20299      6.54544         0.022599     -0.049859     -0.114445
O	      2.23480      4.14757      4.13141         0.091438     -0.024149      0.066600
O	      4.30052      6.25613      4.31932         0.020305     -0.108696     -0.032196
O	      4.20131      4.31162      6.26784         0.037673      0.013533     -0.200698
O	      6.33196      6.42191      6.16340         0.055661     -0.009521     -0.149858
O	      6.44634      4.21740      8.57893         0.021635     -0.030453      0.021432
O	      8.49215      6.27719      8.53610         0.010006      0.021781     -0.007802
O	      2.13441      6.38597      6.53973        -0.033361      0.033131      0.272078
O	      4.28136      8.48698      6.31324         0.073774      0.011917     -0.030802
O	      4.05704      6.30997      8.47034        -0.056846      0.030664      0.096819
O	      6.39127      8.67896      8.54559        -0.048094      0.160659     -0.012524
O	      6.33364      6.31272     10.64670         0.026814     -0.112727     -0.024919
O	      8.51834      8.46510     10.54588         0.134481      0.045940      0.066274
