# total energy = -253.02173633 eV
 
CRYSTAL
PRIMVEC
0.068785 6.321716 6.381781 
6.518337 0.034410 6.415126 
4.378899 4.269392 -0.009884 
PRIMCOORD
36 1
Li	     10.75319      4.42218      6.59088        -0.076434     -0.003993     -0.012011
Li	      2.14876      2.15385      0.09779         0.004609     -0.061350      0.033064
Li	      6.35738      4.37080      2.18883        -0.005665     -0.069387      0.023581
Li	      6.42823      2.17009      4.30435        -0.019166     -0.044617     -0.005782
Li	      0.19793      1.91209      2.00063         0.031202     -0.051507      0.032575
Li	      2.33272      4.14468      2.06165         0.020075     -0.021922      0.050744
Li	      4.43312      4.14551      4.18353         0.010128      0.023076      0.005347
Li	      4.47997      2.07750      6.29478         0.014680      0.056583      0.069104
Li	      2.20912      4.23294      6.38188        -0.035408      0.064372     -0.003630
Sc	     10.90366      8.55945     10.68367         0.036699      0.085957     -0.051277
Sc	      2.26820      6.27231      4.22869        -0.039209     -0.003604     -0.061499
Ti	      6.70420      4.11274      6.32099         0.028657     -0.438506     -0.025102
Ti	      4.31033      6.34547      6.40633        -0.277762     -0.178235      0.066592
Ti	      6.69590      6.43779      8.42468         0.254359      0.109441      0.069595
Mn	      4.33026      2.24906      2.13557         0.010975      0.107220     -0.028806
Mn	      8.68562      8.58916      8.53669        -0.011499      0.033991     -0.015820
Cr	      2.24868      2.12681      4.25577        -0.069172      0.034793     -0.033932
Cu	      8.73991      4.30285      4.44676         0.001992     -0.065106      0.148876
O	      2.23434      2.09780      2.29396        -0.056583     -0.056556     -0.003174
O	      4.38588      4.13612      2.09874        -0.016643      0.062951      0.035919
O	      4.21815      2.15637      4.25835         0.052241     -0.167579      0.025586
O	      6.47816      4.35835      4.42034        -0.027691     -0.019342      0.086312
O	      6.52536      2.27160      6.41691         0.041192      0.340268     -0.022163
O	      8.55730      4.25349      6.50313        -0.133044     -0.005667      0.001345
O	      2.13370      4.19020      4.28259         0.001352     -0.019787     -0.024655
O	      4.44268      6.39818      4.35149         0.072597      0.012714      0.046718
O	      4.53052      4.43469      6.44853         0.046428      0.202997     -0.115409
O	      6.52016      6.33639      6.41907         0.003054      0.013549     -0.001049
O	      6.49049      4.43992      8.47394         0.090996      0.093382     -0.056111
O	      8.59520      6.38737      8.51373        -0.231237      0.007057     -0.017887
O	      2.44275      6.30940      6.32334         0.284766      0.025431      0.003255
O	      4.42375      8.35794      6.32846        -0.013338     -0.063046     -0.021859
O	      4.55151      6.53323      8.35779         0.050622     -0.022218     -0.199412
O	      6.54994      8.36187      8.48797        -0.029035     -0.128423     -0.019582
O	      6.69992      6.35291     10.46151         0.000938      0.047285     -0.097505
O	      8.84616      8.39338     10.61770        -0.015677      0.099782      0.118051
