# total energy = -257.49086152 eV
 
CRYSTAL
PRIMVEC
0.011398 6.411470 6.504248 
6.352143 0.034993 6.480950 
4.246435 4.270194 0.011644 
PRIMCOORD
36 1
Li	      6.29942      0.08984      6.47382        -0.005054      0.024609      0.062714
Li	      6.35426      4.29569      2.30793        -0.015740     -0.025853      0.000156
Li	      6.29920      2.21514      4.42040         0.011351      0.050117     -0.008603
Li	      4.25444      4.25006      4.47047        -0.007475      0.022893      0.002145
Li	      4.32430      2.22767      6.35732        -0.036427      0.012144     -0.031360
Li	      6.28697      4.23253      6.50093         0.031402      0.026963      0.021500
Li	      6.33108      4.24427     10.69544         0.003189     -0.037417     -0.051956
Li	      2.19931      4.24746      6.47393         0.025377     -0.036504      0.004586
Li	      6.34964      6.40972      8.66755         0.014367      0.002393     -0.020173
Sc	      8.40842      2.19493      6.46557        -0.070687     -0.006031      0.031437
Sc	      4.27419      4.31542      8.60157        -0.065160     -0.005674     -0.089859
Ti	      4.43283      8.68746      8.62828         0.291416      0.220779     -0.121355
Ti	      6.35645      6.30628      4.40942        -0.055871     -0.102710      0.429254
Ti	      8.20619      6.26335     10.86799        -0.244973     -0.216336     -0.013007
Mn	      8.40185      4.37756      8.52907         0.002024      0.063046     -0.022757
Mn	      4.28355      6.37686      6.50410         0.065037     -0.027943     -0.048173
Cr	      4.27998      6.44570     10.83434         0.043995     -0.042534      0.069471
Fe	      6.33688      2.14863      8.59909         0.000561     -0.020769      0.087281
O	      2.23184      2.13882      2.21251         0.073357     -0.033436      0.013160
O	      4.27221      4.14061      2.19016         0.025235     -0.299611      0.036467
O	      4.16935      2.07764      4.20208        -0.027331     -0.025135     -0.035557
O	      6.48387      4.42019      4.33426         0.005914      0.220753     -0.000060
O	      6.38424      2.12278      6.58845         0.076822      0.065148     -0.144828
O	      8.49991      4.26278      6.35897         0.036318     -0.055199     -0.020276
O	      2.10487      4.36606      4.32781        -0.066252      0.230478      0.023083
O	      4.41369      6.39962      4.24407         0.070788     -0.040925      0.022304
O	      4.23246      4.29175      6.58289        -0.002268     -0.013513      0.015303
O	      6.42225      6.47445      6.24110        -0.030749     -0.017295     -0.418129
O	      6.30573      4.33924      8.66020        -0.065220     -0.006776     -0.046837
O	      8.43543      6.50558      8.91525        -0.027032      0.027799      0.149129
O	      2.14106      6.45845      6.24439        -0.028570      0.010199     -0.165239
O	      4.21818      8.50241      6.73894         0.030535      0.031731      0.189419
O	      4.27889      6.47720      8.78892        -0.034154      0.049926      0.048675
O	      6.29936      8.59851      8.70546        -0.301355      0.000969     -0.017109
O	      6.36691      6.40038     10.85333         0.285508     -0.026603      0.048567
O	      8.46934      8.61281     10.85664        -0.008880     -0.019684      0.000627
