# total energy = -253.19554866 eV
 
CRYSTAL
PRIMVEC
0.026347 6.570554 6.307970 
6.402103 0.027193 6.308085 
4.261003 4.373342 0.024574 
PRIMCOORD
36 1
Li	      4.35375     10.88894      6.35180         0.000203     -0.027915     -0.027356
Li	      4.33817      8.68154      8.37889        -0.015537     -0.025798     -0.032897
Li	      4.27535      6.54009      2.16308         0.024884     -0.033947     -0.098199
Li	      4.24701      4.33584      4.34086        -0.058333      0.005606     -0.018452
Li	      8.38190      6.78087      6.38175         0.034007      0.018673      0.054657
Li	      6.56098      8.64223      6.42726        -0.100266      0.001286      0.006547
Li	      4.32008      6.47699      6.45868        -0.020023     -0.030930     -0.029354
Li	      4.13952      4.52883      8.31206         0.017314      0.077157      0.050637
Li	      6.38147      6.66848      8.29405        -0.022245      0.007184      0.044459
Sc	      2.21023      8.70139      6.40035        -0.029888      0.000073     -0.080176
Sc	      6.24065      4.50037      6.38798         0.041067     -0.048781      0.080425
Ti	      6.16681      2.14231      4.18981        -0.176554     -0.102952      0.039832
Ti	      8.73519      4.58344      8.37283         0.101297      0.302230     -0.173472
Ti	      4.30674      8.53394      4.19876        -0.011159     -0.226594      0.094184
Mn	      4.30909      6.55197     10.44580         0.010915     -0.030481      0.058079
Mn	      2.15569      6.48059      4.29892        -0.032642      0.016806     -0.032430
Cr	      6.36652      4.36743      2.12415        -0.059561      0.059196     -0.025954
Ni	      2.18120      2.19706      4.22064         0.057341     -0.070466     -0.012579
O	      2.13366      2.12524      2.14241         0.004864     -0.032920     -0.066580
O	      4.19944      4.37509      2.13288        -0.117227      0.059967     -0.025908
O	      4.32552      2.18546      4.24165         0.320145      0.057333      0.006340
O	      6.35573      4.30610      4.18959        -0.044387     -0.073658     -0.002502
O	      6.50887      2.31395      6.10552        -0.022949      0.075217     -0.112395
O	      8.51351      4.30037      6.46992         0.045703      0.010313      0.160221
O	      2.05940      4.31420      4.07433        -0.004353     -0.001774     -0.008693
O	      4.32291      6.69649      4.19441        -0.034358      0.314563      0.027297
O	      4.29446      4.38247      6.34255        -0.071358      0.025695      0.016819
O	      6.41619      6.51822      6.26070        -0.035148     -0.005627      0.120623
O	      6.55606      4.44586      8.50126         0.093827     -0.058457      0.059988
O	      8.62822      6.40412      8.42517         0.061129     -0.418598     -0.063836
O	      2.10754      6.64298      6.40337         0.044045      0.034709      0.107358
O	      4.27444      8.85017      6.06896         0.007967     -0.077096     -0.187689
O	      4.10664      6.62421      8.39955        -0.004047     -0.018819     -0.037145
O	      6.39461      8.91355      8.58206        -0.045234      0.025493      0.083175
O	      6.44442      6.80477     10.46587        -0.042487      0.193949     -0.002206
O	      8.71184      8.75022     10.51209         0.083051     -0.000635      0.027185
