# total energy = -259.72442525 eV
 
CRYSTAL
PRIMVEC
-0.021514 6.377507 6.638378 
6.347852 0.025157 6.591016 
4.226240 4.214964 0.022817 
PRIMCOORD
36 1
Li	      4.22718      4.25239      0.14622         0.025635      0.040272      0.050310
Li	      6.31878      4.24357      2.25433        -0.019174     -0.020383      0.014960
Li	      4.20513      0.08394      4.35982        -0.005253     -0.003384     -0.024245
Li	      8.48666      4.30590      8.73507        -0.003278      0.002031     -0.071084
Li	      6.31087      6.35051      4.46195        -0.026926      0.038542     -0.004202
Li	      4.22872      2.11752      6.50235         0.057981     -0.015292     -0.103714
Li	      4.21315      8.36323      4.51823         0.011033      0.010756      0.043456
Li	      4.20634      6.42815      6.57042         0.012132     -0.030837     -0.026115
Li	      4.20057      4.31273      8.81238         0.009703      0.002171     -0.002781
Sc	      4.17027      2.12593      2.26537        -0.033308     -0.007684      0.068788
Sc	      6.33032      4.32273      6.53074        -0.108281     -0.016010     -0.051261
Ti	      8.54451      8.62618     13.20691         0.004184      0.047247      0.020712
Ti	      2.24398      4.29186      6.62299         0.185748      0.063420     -0.029161
Ti	      6.31795      6.26138      8.91932        -0.116190     -0.146128      0.124983
Mn	      6.33524      2.14071      4.42109        -0.021328      0.012248     -0.038896
Mn	     10.53498      6.35551      8.83773         0.002818      0.031436      0.015730
Mn	      4.21938      4.25868      4.34032         0.036293     -0.031912     -0.017367
Cr	      2.09604      6.32818      4.46359         0.011494      0.011116      0.055449
O	      2.13307      2.03093      1.94585         0.061529      0.044157     -0.118924
O	      4.17632      4.17648      2.19373         0.034206     -0.035893     -0.082332
O	      4.21273      2.12595      4.33463        -0.063608     -0.102097     -0.012421
O	      6.35214      4.28907      4.50337         0.088046      0.040731      0.008863
O	      6.46554      2.20566      6.61582         0.051233     -0.008600     -0.004051
O	      8.44806      4.11504      6.56371         0.025035     -0.158341     -0.005247
O	      2.03875      4.27214      4.69579        -0.061678      0.002776      0.134007
O	      4.09733      6.36780      4.40382         0.007572      0.085222      0.095354
O	      4.13782      4.25128      6.65261        -0.252426      0.022182      0.058880
O	      6.37319      6.44795      6.77526        -0.006760      0.040644     -0.003565
O	      6.35630      4.37936      8.68524        -0.009961      0.232391      0.048453
O	      8.33365      6.38754      9.01032        -0.081634      0.000702      0.012668
O	      2.09043      6.24981      6.53904         0.009491     -0.075790     -0.001653
O	      4.13034      8.46176      6.71284        -0.028828      0.036341     -0.034910
O	      4.40258      6.38355      8.90217         0.172441     -0.015814     -0.009113
O	      6.30256      8.42247      8.65993        -0.012230     -0.026154     -0.084534
O	      6.41117      6.37235     10.84466        -0.034750     -0.101338     -0.116455
O	      8.45049      8.36151     11.26684         0.079037      0.031273      0.089418
