# total energy = -233.28214596 eV
 
CRYSTAL
PRIMVEC
0.045462 6.352468 6.146887 
6.428360 0.022716 6.169435 
4.302175 4.266394 -0.000975 
PRIMCOORD
36 1
Li	      4.43176     10.42260      6.10213        -0.038428      0.041159     -0.018712
Li	      2.45357      8.38444      6.06701         0.042752     -0.001923      0.004770
Li	      4.36747      8.44427      8.07897         0.007032     -0.025285      0.038505
Li	      8.45301      6.45822      6.16011         0.023653     -0.037873      0.051402
Li	      6.39642      4.43475      6.19728        -0.017151     -0.007720      0.019572
Li	      4.31918      8.44787      4.25328         0.009236     -0.065034     -0.091375
Li	      4.43092      6.56553      6.15273        -0.012703     -0.067434      0.016191
Li	      8.55748      8.55559      8.19879        -0.029856     -0.018676     -0.009368
Li	      6.47029      6.38914      8.09746         0.019728      0.016192      0.042594
Sc	      2.23610      6.30608      8.05483        -0.020662      0.067006      0.012160
Sc	      4.46767      6.28996     10.25576         0.044789     -0.054235      0.137081
Sc	      6.36932      2.21715      8.07280         0.063509      0.023164     -0.039963
Mn	      6.50451      8.46263     10.31104         0.078751     -0.052976     -0.033241
V	      8.53053      4.27837      8.11096         0.022297     -0.044268     -0.155626
V	      4.27312      4.25916      4.24814        -0.016972      0.080465      0.041720
Co	      8.60122      6.42917     10.28675         0.001965     -0.002793     -0.010311
Cu	      6.50793      6.38868      4.17961        -0.119990     -0.038460     -0.158849
Ni	      6.33036      8.43576      6.18731         0.145203      0.058815      0.004584
O	      2.07141      2.20684      2.18807        -0.004685     -0.009071     -0.082238
O	      4.26629      4.30539      2.18946        -0.004058     -0.005859      0.067951
O	      4.25316      2.17305      4.12865         0.170242      0.157854      0.020770
O	      6.35930      4.11901      4.10313        -0.111493     -0.129642      0.023035
O	      6.41415      2.16665      6.08860        -0.059126      0.019607      0.049797
O	      8.64881      4.28454      6.32999         0.021060     -0.002982      0.088431
O	      2.26862      4.45083      4.01229         0.015529      0.115187     -0.003119
O	      4.14932      6.24813      4.08458         0.050362     -0.039598     -0.001422
O	      4.25615      4.23112      6.01726         0.003039     -0.011405     -0.138017
O	      6.45691      6.42608      6.05982         0.010922     -0.092475      0.145796
O	      6.63592      4.25748      8.24181        -0.045867      0.010856      0.020246
O	      8.59974      6.29951      8.30898        -0.011758      0.050561      0.046106
O	      2.16849      6.30607      6.05563         0.022592      0.112105     -0.060025
O	      4.37164      8.50442      6.15814        -0.096496     -0.005968     -0.001660
O	      4.24521      6.34804      8.29404        -0.004571     -0.000587     -0.075012
O	      6.48892      8.53931      8.30414        -0.030037      0.003333      0.081819
O	      6.54054      6.50178     10.26924        -0.065098      0.000350     -0.015001
O	      8.66218      8.46777     10.26665        -0.063706     -0.042388     -0.018590
