# total energy = -232.89262582 eV
 
CRYSTAL
PRIMVEC
-0.007433 6.317655 6.186964 
6.638988 0.001063 6.180103 
4.447786 4.225788 -0.018242 
PRIMCOORD
36 1
Li	      4.56618     10.36763      6.36271        -0.040508     -0.028372      0.036992
Li	      2.41944      6.31284      8.24512        -0.061198      0.005089      0.001124
Li	      4.41836      8.31904      8.21571         0.008969      0.083013      0.009109
Li	      4.35374      6.35563     10.09566        -0.011339      0.020748      0.112810
Li	      8.89979      4.29747      8.20161         0.026566     -0.004637     -0.050413
Li	      8.90534      6.32700      6.25183        -0.012632     -0.047129     -0.045237
Li	      8.83392      6.35649     10.22539        -0.034063     -0.047367     -0.025726
Li	      4.39465      4.30501      8.17764        -0.025422     -0.076802      0.012778
Li	      6.63414      6.35792      8.16216         0.002484      0.007155     -0.010042
Sc	      2.21192      8.30931      6.25342        -0.055082      0.045823      0.054624
Sc	     10.86999      6.28220      8.20310         0.176792     -0.131027     -0.043697
Sc	      4.41589      4.15400      4.13393        -0.032910     -0.018338     -0.136183
Mn	      6.73565      4.30078     10.27503         0.093981      0.100240     -0.055601
V	      6.67188      8.24003     10.13667        -0.237975      0.104124     -0.106950
V	      6.77918      4.39113      6.22685         0.139292      0.041874     -0.014668
Co	      2.17087      2.08367      4.03250         0.004359      0.055040     -0.039681
Cu	      6.56800      8.53186      6.26294         0.117112     -0.055991      0.228584
Cu	      4.35338      6.33233      6.26238         0.015593      0.034350     -0.057889
O	      4.43634      6.33464      8.15863         0.002591     -0.012422      0.026655
O	      2.09157      2.10660      2.08950         0.015148     -0.012629     -0.062429
O	      4.32583      4.25864      2.11296        -0.026921     -0.018251      0.034602
O	      4.78600      2.12075      4.13904        -0.145290     -0.024839     -0.004813
O	      6.60935      4.20862      4.22332         0.005196     -0.108664     -0.021778
O	      6.68838      2.25856      6.09584        -0.068675     -0.047168      0.001457
O	      8.57408      4.15945      6.13817         0.078156     -0.036474      0.001540
O	      2.27103      4.10228      4.33117         0.064160      0.050570     -0.083322
O	      4.41136      6.32835      4.15606         0.124361      0.040221      0.001273
O	      4.80922      4.30976      6.17914         0.065001      0.034311      0.124397
O	      6.85217      6.20678      6.10362         0.047659     -0.112240     -0.034323
O	      6.68902      4.24595      8.08043        -0.004588      0.002645      0.128000
O	      8.93724      6.34347      8.23317        -0.135425      0.036538      0.017492
O	      2.07585      6.24829      6.19330        -0.079366      0.189547     -0.006322
O	      4.25499      8.41800      6.13087        -0.078924     -0.016809      0.001526
O	      6.66379      8.43414      8.34789        -0.035617      0.011649      0.046388
O	      6.63280      6.48045     10.27341        -0.032797     -0.062333      0.026126
O	      8.50962      8.45320     10.31782         0.131312     -0.001444     -0.066402
