# total energy = -234.00560424 eV
 
CRYSTAL
PRIMVEC
0.023835 6.431467 6.335196 
6.265620 0.044063 6.315050 
4.193187 4.289971 0.013195 
PRIMCOORD
36 1
Li	      8.37975      8.60044     12.63094         0.017543     -0.019613      0.024313
Li	      4.20457      2.16002      2.13174        -0.004345      0.024425      0.059844
Li	      6.35604      8.52431     10.47920         0.002636     -0.038761     -0.104659
Li	      8.36465      4.39100      8.44237        -0.056175      0.014517     -0.024589
Li	      4.15721      4.34040      4.20342         0.011075     -0.001060     -0.006980
Li	     10.42620      8.60452     10.53402         0.005222      0.035555     -0.067711
Li	      4.16099      6.44371      6.35209         0.006140     -0.034378      0.132119
Li	      8.39272      8.53687      8.52129         0.036666      0.008933     -0.012590
Li	      6.35298      6.49248      8.51076         0.069313     -0.038501     -0.005170
Sc	      8.50377     10.60526     10.55069        -0.050358      0.068043     -0.055145
Sc	      2.03455      2.25461      4.14112         0.214531     -0.015152      0.008857
Sc	      8.41698      6.47750      6.38864        -0.244218     -0.005746     -0.063097
Mn	      6.23986      4.27965      6.37044        -0.021009      0.246962     -0.094590
V	      6.31342     10.69813      8.43262        -0.092539     -0.116214      0.025942
V	      6.18985      8.61748      6.34218         0.061938      0.003698      0.081943
Co	      6.28721      2.19270      8.41226        -0.468395      0.147800      0.155279
Ni	      6.30887      6.48335     12.62810        -0.022302     -0.093486      0.078514
Ni	      8.39194      6.55367     10.47728        -0.114574     -0.075103      0.219449
O	      2.00274      2.05411      2.09064         0.514908      0.025403      0.128304
O	      4.36086      4.44361      2.08834         0.309318     -0.937770     -0.022341
O	      4.12690      2.09538      4.27566        -0.001699     -0.046347      0.056233
O	      6.27134      4.34997      4.27175         0.036800      0.030464      0.036062
O	      6.28603      2.11638      6.43857        -0.008902      0.061801      0.158595
O	      8.30274      4.34485      6.33259        -0.067256      0.009801     -0.045791
O	      2.12291      4.31603      4.34627        -0.001604     -0.074022     -0.035368
O	      4.17354      6.47488      4.07271         0.165382      0.051351     -0.190560
O	      4.14100      4.28949      6.33481         0.123251     -0.058956      0.017654
O	      6.27644      6.57323      6.35621         0.004378      0.043458     -0.068382
O	      6.27881      4.15183      8.24712         0.084282      0.908662     -0.124910
O	      8.50448      6.43007      8.45449        -0.312547     -0.072366     -0.248340
O	      2.12943      6.33008      6.40753         0.090216      0.002172      0.021333
O	      4.39738      8.63543      6.37296        -0.113944     -0.048814     -0.025975
O	      3.96473      6.50736      8.46825        -0.053349      0.009065      0.043863
O	      6.26744      8.75681      8.33880         0.072569     -0.097918      0.014258
O	      6.33375      6.47127     10.56432        -0.201306     -0.024239     -0.077343
O	      8.39978      8.61220     10.56707         0.008357      0.106336      0.010978
