# total energy = -139.42667437 eV
 
CRYSTAL
PRIMVEC
-4.188523 4.183786 -0.015851 
-4.132897 -4.128177 -0.001223 
2.093252 -0.024930 6.189594 
PRIMCOORD
24 1
Li	     -3.10298     -0.95774      3.05221        -0.003292      0.003299      0.009183
Li	     -3.11491      1.06315      5.07183        -0.000098     -0.008608      0.019390
Li	     -1.00231     -1.05830      1.10865         0.004382     -0.009440      0.001595
Li	     -1.09581      1.03519      3.08417        -0.000552      0.006132      0.002805
Li	     -5.19884     -1.01010      5.14353        -0.001767      0.002308     -0.005649
Li	     -3.06935     -3.12199      1.07095        -0.004804      0.004852     -0.002948
Mn	     -3.09122     -3.10855      5.13851        -0.003385      0.011542     -0.010487
Mn	     -5.20723     -0.98924      1.05145        -0.002020      0.001322     -0.003908
Mn	     -1.01767     -1.03782      5.13487        -0.013218      0.003064      0.004587
Ni	     -3.12923      1.06399      1.08328         0.009885     -0.010828     -0.046949
Ni	     -5.17789      1.06350      3.06000        -0.028303     -0.000520     -0.001164
Ni	     -3.12812      3.10908      3.06422        -0.001096      0.031715      0.022326
O	     -5.19064     -1.00617      2.93540         0.108721     -0.107401     -0.044659
O	     -5.33005      1.19414      5.14341        -0.030571      0.022009      0.103572
O	     -3.22865     -1.00786      0.90395        -0.023536     -0.104800     -0.020573
O	     -3.15398      1.08830      3.10047         0.119469     -0.116092      0.126441
O	     -3.25761      3.25779      5.19474        -0.017741      0.021349      0.088849
O	     -1.05738      1.16381      0.91591         0.105234      0.024751     -0.031556
O	     -2.99771     -1.13247      5.22127         0.014524     -0.017075      0.004972
O	     -5.18857      0.92667      0.98167        -0.108083     -0.050213     -0.114710
O	     -1.01223     -1.04962      3.23250        -0.106482      0.104420      0.044296
O	     -0.90577      0.91216      5.16798         0.029908     -0.026359     -0.105539
O	     -2.99235      3.12312      0.98477         0.052999      0.111751     -0.105006
O	     -3.06230     -3.13080      3.25646        -0.100174      0.102824      0.065133
