# total energy = -236.54503543 eV
 
CRYSTAL
PRIMVEC
0.033815 6.546398 6.297573 
6.294521 0.018581 6.313678 
4.224774 4.403902 -0.016873 
PRIMCOORD
36 1
Li	      6.50324     10.76841      8.38932        -0.037216      0.000837      0.015497
Li	      4.29755      6.47106     10.35784         0.014842      0.026508      0.027527
Li	      6.45928      8.64092     10.34493        -0.013713     -0.090702      0.003941
Li	      4.24894      2.35601      6.32240        -0.014592      0.003381     -0.034465
Li	      6.21959      4.38086      6.30885         0.014248      0.021174     -0.013505
Li	      6.32996      4.44603     10.50268         0.018117      0.018153      0.028720
Li	      2.23661      4.43783      6.34998        -0.037417     -0.054272     -0.011907
Li	      4.15197      6.40268      6.40857         0.028797     -0.019195      0.010034
Li	      6.28109      6.61022      8.55414         0.004793     -0.018472     -0.068182
Sc	      6.33448      6.55082     12.50298        -0.083345      0.048210     -0.031005
Sc	      8.44681      8.75153     12.42976        -0.009255      0.081958      0.111177
Sc	      4.37858      8.59439      8.37406        -0.090250     -0.121400      0.007237
Mn	      0.02721      2.19627      2.11561        -0.009952     -0.005385     -0.072763
V	      8.31667      4.44753      8.42082        -0.047327     -0.054375     -0.121314
V	      6.32532      6.47715      4.39327        -0.051184      0.073538      0.182894
Co	      8.43250      6.62705     10.51388        -0.033845      0.037196      0.042348
Co	      4.17620      4.48531      8.35706        -0.042641      0.248067      0.070359
Cu	      4.18565      4.37989      4.33753        -0.016883      0.000839     -0.071058
O	      2.01836      2.33315      2.10679         0.011217      0.052688      0.016224
O	      4.03393      4.30417      2.14647         0.027980     -0.031026      0.014186
O	      3.90615      2.08541      4.17533         0.036938     -0.008932     -0.005700
O	      6.14895      4.68399      4.19125         0.025055     -0.037530     -0.046172
O	      6.31513      2.14239      6.47489         0.035030     -0.035435      0.009344
O	      8.42818      4.34624      6.42841         0.011100     -0.032367      0.031770
O	      2.19603      4.24064      4.10646        -0.059434     -0.053034     -0.004856
O	      4.38832      6.74324      4.02374         0.093519      0.110155     -0.004610
O	      4.22589      4.37047      6.32605         0.117498     -0.208662     -0.058198
O	      6.27061      6.63634      6.09334        -0.002632     -0.042266     -0.091926
O	      6.51001      4.49017      8.39164        -0.002457     -0.021738      0.012362
O	      8.58021      6.46958      8.51577         0.220326     -0.105217     -0.486391
O	      2.12069      6.64106      6.21541         0.063005      0.055761      0.446132
O	      4.19667      8.85119      6.32819         0.016784      0.070622     -0.047997
O	      4.23722      6.59036      8.38685        -0.025404     -0.007944      0.021415
O	      6.33290      8.77493      8.41452         0.003032      0.057517      0.021851
O	      6.37869      6.59533     10.52540        -0.160703     -0.003181      0.093462
O	      8.44496      8.78388     10.42690        -0.004032      0.044529      0.003569
