# total energy = -239.23463566 eV
 
CRYSTAL
PRIMVEC
0.032168 6.259368 6.526149 
6.299221 0.025486 6.534008 
4.193366 4.171463 0.023090 
PRIMCOORD
36 1
Li	      4.19100      0.08998      4.37171        -0.058720     -0.029341     -0.013887
Li	      6.24516      2.12881      4.38697         0.076193      0.046989      0.049126
Li	      6.34771      2.12274      8.55882         0.032208      0.088626     -0.143045
Li	      2.21409      2.05441      4.35514        -0.054937     -0.007939     -0.020017
Li	      4.22735      2.12948      6.38199        -0.003684     -0.051399      0.022098
Li	      6.33987      4.08864      6.49855         0.082417     -0.058266     -0.008940
Li	      8.39877      6.25314     10.87880        -0.008132     -0.025576     -0.008233
Li	      6.36456      8.34477      6.62491        -0.045344      0.030581      0.049147
Li	      6.24469      6.30420      8.81927        -0.001363     -0.067654      0.086054
Sc	      6.29999      0.13975      6.47810         0.086033      0.073880     -0.177259
Sc	      4.22871      8.30638      4.39231         0.233664     -0.035486     -0.123805
Sc	      8.35153      8.27114      8.74851         0.084256      0.055423      0.172052
Mn	      6.26137      4.22918      2.26523         0.246914      0.165552     -0.085748
V	      8.37967      4.28929      8.71430        -0.358742     -0.135864     -0.113467
V	      4.41704      6.20372      6.55042        -0.378186      0.033175      0.325625
Co	      8.34906      2.16305      6.45118         0.031598     -0.181184      0.085301
Co	      4.23548      2.08609      2.26823         0.045331     -0.074990     -0.102607
Co	      4.20041      4.13893      4.39195        -0.001262     -0.374091     -0.152435
O	      2.20862      2.17385      2.16374        -0.530939      0.174847     -0.181907
O	      4.08731      4.24110      2.13552         0.155768      0.102839      0.448176
O	      4.20208      2.26029      4.27390        -0.155455     -0.077527      0.751855
O	      6.14983      4.23869      4.17242         0.656687      0.151480     -0.116814
O	      6.32240      2.11110      6.50767        -0.125263      0.097198     -0.005404
O	      8.39999      4.20199      6.69578        -0.028171      0.192852     -0.005894
O	      2.18956      4.16309      4.17876        -0.648899     -0.012364     -0.023460
O	      4.16085      6.14428      4.62043        -0.160262      0.151842     -0.201096
O	      4.18561      4.25281      6.60623         0.071551     -0.167261     -0.514731
O	      6.14717      6.27313      6.54157         0.414229      0.012728      0.041966
O	      6.37367      4.10574      8.80677        -0.062550     -0.011943      0.026817
O	      8.35280      6.12126      8.71190        -0.029033      0.184630     -0.026084
O	      2.20626      6.31433      6.75805        -0.146609     -0.144044      0.096369
O	      4.25167      8.27322      6.53282        -0.047612     -0.052660     -0.096773
O	      4.24756      6.21009      8.58727         0.076328      0.003821      0.064517
O	      6.27036      8.44422      8.74370         0.587613     -0.038157     -0.140054
O	      6.33291      6.19545     10.99273        -0.045554     -0.006602     -0.020710
O	      8.46574      8.33247     10.81083         0.009927     -0.014115      0.063266
