# total energy = -230.99000406 eV
 
CRYSTAL
PRIMVEC
0.022432 6.453099 6.274913 
6.300152 0.034905 6.262686 
4.228318 4.321966 -0.005156 
PRIMCOORD
36 1
Li	      6.21545      4.27025      2.06782         0.030727     -0.053606     -0.001573
Li	      4.37452      8.67087      8.35959         0.001533     -0.006029     -0.023883
Li	      6.38272      8.63600     10.26135         0.010087      0.034238      0.007982
Li	      4.30811      6.25321      2.09871         0.012436     -0.037635      0.014667
Li	      2.17674      4.31220      2.08015        -0.040843     -0.003882     -0.000700
Li	      6.28337      4.41847      6.34245         0.036443      0.002053      0.010127
Li	      6.43344      8.61141      6.37191        -0.004343     -0.009416     -0.031452
Li	      4.25760      6.33583      6.38603        -0.008360      0.002867      0.022462
Li	      4.13051      4.41319      8.21400         0.004772      0.026810     -0.006706
Sc	      4.27284      2.28707      6.28644         0.056105     -0.006113      0.040682
Sc	      6.28487      4.31267     10.35800        -0.071684     -0.037966      0.009793
Sc	      2.12755      6.39217      4.20321        -0.027896     -0.057949      0.036829
Mn	      4.25358      6.47794     10.41902        -0.006581      0.055094      0.036728
V	      2.08110      2.14360      0.12812        -0.114380      0.006014      0.011684
V	      2.14335      2.13728      4.07539        -0.019820      0.027255     -0.098530
Cu	      4.27566      4.28144      4.10555         0.085143      0.048321      0.028926
Cu	      6.29610      6.53666      8.32047         0.017828      0.030444     -0.034447
Ni	      4.23105      4.29965      0.17661        -0.030885      0.005799     -0.035927
O	      6.33998      8.40665      8.31293         0.025446      0.134092     -0.020967
O	      2.06343      2.23526      2.16405        -0.023897      0.044364     -0.037600
O	      4.22157      4.31423      2.16302        -0.011110     -0.056396      0.053797
O	      4.12875      2.19924      4.16425         0.096192     -0.031141     -0.092937
O	      6.52783      4.50860      4.04238         0.033819     -0.070862     -0.037241
O	      6.42872      2.16298      6.35813        -0.072826      0.079746      0.035310
O	      8.40913      4.28558      6.15825        -0.088909      0.068644      0.117161
O	      2.01407      4.30097      4.19644        -0.159379     -0.007757      0.022505
O	      4.24485      6.51044      4.09858        -0.005675      0.003904     -0.000547
O	      4.26596      4.26795      6.10559         0.010435      0.066262      0.146148
O	      6.36111      6.51095      5.90083         0.012732      0.014189      0.089525
O	      6.26673      4.63441      8.36415        -0.022650     -0.108851     -0.054038
O	      8.25091      6.52070      8.34629         0.045854     -0.007528     -0.012298
O	      2.11160      6.59661      6.32318         0.091586     -0.078391      0.036876
O	      3.94511      8.66233      6.31512         0.090409     -0.113793      0.020698
O	      4.40393      6.47661      8.48870         0.021406      0.033300     -0.165761
O	      6.27875      6.41961     10.67755         0.075565     -0.014882      0.001481
O	      8.41077      8.54565     10.62693        -0.049280      0.018801     -0.088774
