# total energy = -237.92432473 eV
 
CRYSTAL
PRIMVEC
0.012568 6.447913 6.244752 
6.327573 0.005600 6.251266 
4.250197 4.334547 -0.027618 
PRIMCOORD
36 1
Li	      6.38004      6.50178     12.48059         0.038666     -0.017972      0.018588
Li	      6.29050      4.38464      2.04600        -0.018871      0.016675     -0.020683
Li	      8.42675      4.34962      4.21095        -0.010103     -0.017122      0.019778
Li	      6.30688      2.18798      4.21984        -0.015952      0.018062      0.042169
Li	      4.23255      6.41801      2.03277        -0.099353     -0.007519      0.013872
Li	      2.15202      2.07128      4.12298         0.011875     -0.055058     -0.016246
Li	      4.28082      2.08129      6.21443        -0.003211     -0.000932      0.016564
Li	      2.10720      6.46902      4.19340        -0.009875      0.042711     -0.034306
Li	      2.08696      4.40725      6.24758         0.005738      0.093932      0.025239
Sc	      8.30496      2.17291      6.23347         0.041703      0.021689      0.054405
Sc	      0.10584      4.33317      4.14872        -0.025635     -0.026087     -0.018263
Sc	      4.18919      6.43156      6.19435         0.067882      0.021931     -0.068224
Mn	      8.38291      8.68981      8.37307        -0.045974      0.069463     -0.046998
V	      4.24971      2.15511      2.19337        -0.022979      0.112109     -0.093778
V	      6.49528      6.48112      8.32210        -0.055416      0.031737     -0.032392
Fe	      4.28330      4.37527      4.11520        -0.041337     -0.053739     -0.057008
Co	      6.32680      4.30678      6.23516         0.007020     -0.034912     -0.059004
Cu	      2.17486      4.31014      2.04760         0.015273      0.061273     -0.060583
O	      2.32611      2.05526      2.04727        -0.077736     -0.110944      0.002672
O	      4.25607      4.15550      2.09166         0.095594     -0.040264      0.004209
O	      4.24325      2.22047      3.98321        -0.010545     -0.006455      0.257862
O	      6.24897      4.31824      4.30493         0.112742     -0.042581      0.033724
O	      6.30675      2.30414      6.29905        -0.082897      0.094209     -0.018467
O	      8.29421      4.31257      6.33603        -0.081916      0.018165     -0.104460
O	      2.21768      4.31447      4.04994        -0.040720      0.021280      0.168877
O	      4.28228      6.46149      4.10136        -0.020084      0.028304      0.081799
O	      4.31630      4.34494      6.17233         0.010032     -0.099075      0.073310
O	      6.31691      6.28662      6.33648         0.095754     -0.054577     -0.008144
O	      6.31316      4.43444      8.26808        -0.122381     -0.061988     -0.091180
O	      8.28051      6.58240      8.28815         0.070377      0.065703      0.026645
O	      2.15857      6.50017      6.24818         0.013536      0.023214     -0.034839
O	      4.26268      8.57326      6.25545         0.002852     -0.021367     -0.061270
O	      4.38251      6.57865      8.30535         0.033523     -0.080325     -0.005239
O	      6.25324      8.49112      8.26432         0.110175     -0.033502     -0.014961
O	      6.34209      6.39366     10.29384         0.083493      0.029691     -0.057459
O	      8.57041      8.66222     10.42700        -0.031252     -0.005728      0.063789
