# total energy = -238.49005507 eV
 
CRYSTAL
PRIMVEC
-0.023534 6.325963 6.157825 
6.505603 -0.042487 6.177827 
4.314775 4.208402 -0.006522 
PRIMCOORD
36 1
Li	      2.19849      0.00672      2.09643        -0.008315     -0.031835     -0.029008
Li	      4.31047      8.33771      8.28372        -0.007138     -0.019079     -0.067945
Li	      4.36192      0.03902      4.10059         0.046779      0.024095      0.051198
Li	      6.42153      2.10110      4.09522        -0.031415      0.015986      0.007755
Li	      4.28077      6.32363      2.10915        -0.001440      0.005924     -0.070230
Li	      8.61631      4.27374      8.25513         0.035132      0.027675     -0.021785
Li	      8.58207      6.29053      6.18805        -0.047022     -0.010474      0.009651
Li	      4.30897      8.39441      4.08161         0.005768      0.010807      0.030626
Li	      2.16884      6.28507      4.05273        -0.030884     -0.024906      0.040636
Sc	      6.44862      0.03256      6.16647         0.018156      0.036076     -0.014447
Sc	      6.42261      8.40251      6.13134        -0.018511      0.054819     -0.037287
Sc	      8.64154      8.37111      8.36941        -0.030716      0.036375     -0.080674
Mn	      6.50185      4.19355      6.13938        -0.041892     -0.009914     -0.035115
V	      2.16913      2.11737      0.03291         0.107463     -0.056195      0.012139
V	      4.30773      4.14794      3.97402        -0.059071     -0.176551      0.164042
Fe	      6.52024      6.29600      8.37024        -0.108310     -0.043393     -0.142250
Co	      4.26939      6.33171      6.15963         0.213693     -0.414389      0.069587
Ni	      2.16078      2.07843      3.98507         0.082491     -0.019039     -0.042502
O	      2.21540      2.05387      1.85687         0.005898      0.006970      0.038060
O	      4.33563      4.26091      2.10064         0.024317     -0.007129     -0.129523
O	      4.27643      2.29510      4.13141         0.075215      0.003352     -0.053675
O	      6.36759      4.20745      4.19729         0.011123     -0.056229     -0.000505
O	      6.65908      2.14778      6.16383         0.035964      0.013624      0.029413
O	      8.68442      4.06672      6.15262         0.043275      0.065274     -0.006080
O	      2.27675      4.13658      4.07220        -0.044220      0.124977     -0.033686
O	      4.39057      6.11400      4.11815        -0.209437      0.202071      0.483476
O	      4.24259      4.19151      6.13533         0.057091      0.329979      0.025156
O	      6.45695      6.25052      6.15780        -0.104418     -0.104129      0.006789
O	      6.44737      4.23353      8.09581        -0.028257     -0.079069      0.074253
O	      8.52010      6.33346      8.22548         0.085594     -0.042856     -0.013161
O	      2.08088      6.32838      6.15672         0.003410      0.042731     -0.026651
O	      4.27711      8.45910      6.13773        -0.033369     -0.145825      0.002324
O	      4.42655      6.26330      8.21874        -0.103296      0.210077     -0.443010
O	      6.54122      8.34046      8.20049        -0.000515      0.039412      0.035885
O	      6.44837      6.29348     10.27290        -0.007429      0.010810      0.242232
O	      8.70375      8.34929     10.44247         0.064287     -0.020022     -0.075688
