# total energy = -240.24522355 eV
 
CRYSTAL
PRIMVEC
0.001785 6.358799 6.303032 
6.330218 -0.012370 6.316740 
4.224947 4.253449 -0.012902 
PRIMCOORD
36 1
Li	      6.33521      4.30177      2.24624        -0.050221     -0.000881     -0.082936
Li	      8.28540      4.40196      4.21705         0.041238     -0.025824      0.020196
Li	     10.50910      6.43350      8.45963         0.021874      0.025744      0.014639
Li	      2.09066      4.24231      2.15926         0.025438     -0.019704      0.055719
Li	      6.38771      6.16898      4.14675        -0.058609      0.030946     -0.019184
Li	      4.26064      4.27358      4.15162        -0.048636     -0.018794     -0.042695
Li	      6.36817      4.24192      6.24465         0.009350      0.010212     -0.035615
Li	      2.11595      4.19367      6.26193         0.039946     -0.021309     -0.039477
Li	      4.32368      4.12781      8.37662        -0.006478     -0.040926      0.031618
Sc	      6.37107      2.29816      4.20493        -0.013978      0.052789     -0.046379
Sc	      4.21418      6.17175      6.24470        -0.014549     -0.189905     -0.076652
Sc	      6.36578      6.32323      8.42288         0.077321     -0.044642      0.022456
Mn	      0.04044      4.20480      4.18345         0.032860     -0.021169     -0.016027
V	      8.42096      2.20208      6.36937        -0.079727      0.082696      0.077756
V	      4.19351      2.19757      2.14304         0.005277      0.279319     -0.020088
Fe	      4.20453      2.16717      6.34104         0.093973     -0.076292     -0.040458
Co	      0.00253      0.00830      0.00944        -0.033210      0.161168      0.040801
Co	      8.45450      6.33720     10.48429         0.015350     -0.093055     -0.031407
O	      2.21678      2.07646      2.00429        -0.084027      0.047141      0.049448
O	      4.23614      4.00348      2.05214        -0.000855     -0.241642     -0.021654
O	      4.23863      2.12840      4.16287         0.025838      0.016463     -0.041177
O	      6.36602      4.23185      4.19239        -0.064544     -0.072953      0.003420
O	      6.26998      2.13553      6.33361         0.154159     -0.089747     -0.074008
O	      8.50330      4.22087      6.26755         0.059965     -0.092929      0.079958
O	      1.95159      4.43158      4.19980         0.015666      0.131143      0.021515
O	      4.08041      6.29458      4.19392        -0.106075      0.037194      0.058280
O	      4.18031      4.14600      6.34107         0.025092      0.137713     -0.001895
O	      6.38108      6.30905      6.32845        -0.091060      0.007009      0.019382
O	      6.29841      4.26723      8.58581         0.057134      0.069239      0.077440
O	      8.44374      6.36141      8.39894        -0.122795     -0.012393      0.081191
O	      2.10328      6.45904      6.13069         0.060395      0.104417      0.046795
O	      4.19064      8.42653      6.27823        -0.011437     -0.023077     -0.037622
O	      4.26046      6.54400      8.34233        -0.030439      0.033608     -0.075730
O	      6.21894      8.45003      8.43995        -0.009512     -0.034301      0.011337
O	      6.48911      6.44435     10.52245         0.074543     -0.038398      0.022002
O	      8.53441      8.36849     10.57963        -0.009266     -0.068862     -0.030948
