# total energy = -139.54534800 eV
 
CRYSTAL
PRIMVEC
-4.129949 0.000643 4.129848 
0.037007 -4.179113 4.166157 
6.243392 2.046522 4.178558 
PRIMCOORD
24 1
Li	     -1.07202     -3.18061      7.11761         0.008479      0.002650      0.006247
Li	      1.13135     -1.05922      7.34183        -0.005959     -0.006251     -0.001025
Li	      0.93195     -3.17651      5.12255         0.001985      0.005467      0.005240
Li	      3.17772     -1.08490      5.23473        -0.006948     -0.008446     -0.005161
Li	      3.25265      0.97403      7.35412        -0.008042      0.000507     -0.011108
Li	      5.28132      1.13972      5.28911         0.006429      0.015994      0.001106
Mn	      1.06357      1.02099      5.20280        -0.016859      0.007224     -0.013781
Mn	      3.13689      1.02845      3.13103        -0.009954      0.006075     -0.012393
Mn	      1.03904     -1.07383      3.10332         0.003616      0.012097      0.001516
Ni	     -1.01771     -1.08994      5.17670         0.008215      0.034525      0.009009
Ni	      3.18360     -1.07022      9.36566        -0.024550     -0.011200      0.011181
Ni	      5.23485     -1.07132      7.31025         0.009403     -0.024560     -0.030273
O	      3.01835      1.00722      5.09478        -0.022999     -0.097345     -0.020048
O	     -1.03648     -3.10357      5.15252         0.118883     -0.132619      0.121984
O	      0.95480      0.97326      7.14436        -0.018820     -0.093987     -0.016148
O	     -3.06080     -2.96594      7.26332         0.102221      0.058249      0.099676
O	      1.05013     -0.94099      5.06476         0.107649      0.027027     -0.021403
O	     -1.12487     -0.92889      7.24778        -0.019537      0.030454      0.103874
O	     -0.84034     -3.17274      9.49146         0.031135      0.096006      0.029071
O	      1.11474     -1.26723      9.36946        -0.097202     -0.069331     -0.094420
O	      1.19644     -3.23022      7.38812         0.008039      0.001638      0.010936
O	      3.16133     -1.24076      7.29746        -0.100097     -0.055615     -0.101425
O	     -3.07681     -1.03639      5.30422        -0.111154      0.098643      0.037359
O	     -0.88922     -1.03795      3.11669         0.036066      0.102798     -0.110013
