# total energy = -235.56524467 eV
 
CRYSTAL
PRIMVEC
-0.019809 6.281580 6.457326 
6.369396 -0.048582 6.486211 
4.215543 4.175921 -0.001764 
PRIMCOORD
36 1
Li	      8.38784      2.05998      6.52066        -0.004522      0.005081     -0.054686
Li	      6.21983      4.17083      2.24293        -0.053320     -0.097502     -0.076970
Li	      4.23190      2.18299      2.21064         0.083557      0.083330     -0.072416
Li	      4.25892     -0.01319      4.32789         0.101352     -0.111400     -0.053449
Li	      6.33697      8.27232     10.81665         0.103808     -0.138809      0.000119
Li	      4.26828      6.14757      2.14897        -0.110146     -0.015960     -0.039966
Li	      4.24070      4.18667      4.16580        -0.106314      0.100709     -0.187338
Li	      4.28498      2.01695      6.43326         0.068087     -0.027875      0.110340
Li	      8.42219      6.26633     10.79872        -0.035665      0.082436     -0.042412
Sc	      6.44542      4.04343      6.41111         0.123923     -0.280909      0.461157
Sc	      6.34632      4.20092     10.75588        -0.189754      0.213552     -0.239348
Sc	      4.16039      6.27354      6.47628        -0.209020      0.032749      0.258526
Mn	      6.32418      0.04056      6.51249         0.029949     -0.016666      0.276087
V	      2.25866      2.03676      4.20254         0.329999     -0.321118     -1.500439
V	      8.38160      8.25014      8.70940        -0.100855     -0.411732      0.006483
Fe	      2.13955      4.16943      6.46362         0.052621      0.122696      0.355910
Cu	      2.20548      4.14019      2.09547        -0.091907      0.166130     -0.208129
Cu	      6.32415      6.27548      8.70429        -0.005530      0.124250      0.120852
O	      2.12027      2.15271      2.33943        -0.003644     -0.477506      1.525388
O	      4.18552      4.20257      1.96219         0.372309      0.002489      0.029894
O	      4.05156      2.10007      4.27657        -0.831629     -0.044491      0.018931
O	      6.28391      4.27984      4.32531         0.135579      0.913795      0.050886
O	      6.36259      2.05307      6.47533         0.015660      0.223197     -0.079404
O	      8.43454      4.12208      6.42776        -0.190684     -0.006315     -0.077790
O	      2.11287      4.10564      4.43794         0.047044     -0.446082      0.201075
O	      4.34481      6.31301      4.36687         0.304834      0.000220      0.043805
O	      4.19243      4.15621      6.60672         0.067916      0.107526     -0.109091
O	      6.30879      6.26530      6.30139         0.041110     -0.005416     -0.603938
O	      6.29254      4.23246      8.63560        -0.118219     -0.222317      0.003737
O	      8.37596      6.37703      8.64126         0.195561      0.407952      0.045089
O	      2.13001      6.16906      6.48875         0.141120      0.030581     -0.035320
O	      4.27902      8.35798      6.44884         0.005407     -0.149169     -0.093756
O	      4.31149      6.05282      8.59138        -0.257974     -0.054687     -0.119495
O	      6.40011      8.26297      8.55230        -0.012280      0.346983     -0.001825
O	      6.35449      6.24171     11.02797         0.000226     -0.115743      0.021517
O	      8.47975      8.31949     10.62392         0.101401     -0.019977      0.065978
