# total energy = -239.31675768 eV
 
CRYSTAL
PRIMVEC
-0.014848 6.407791 6.373716 
6.328914 0.008291 6.350761 
4.225263 4.262673 -0.000532 
PRIMCOORD
36 1
Li	      2.14749      8.50800      6.36794        -0.009540     -0.009604     -0.008386
Li	      4.16883      2.13496      2.17937         0.010121     -0.035332      0.009882
Li	      4.20994      6.42882     10.59446        -0.026797      0.018040      0.026952
Li	      2.13698      4.22973      2.17389         0.005610     -0.034219     -0.043584
Li	      2.24881      2.25806      4.21397         0.017325      0.005037      0.046067
Li	      4.14120      4.13001      4.28263        -0.012174      0.061004      0.050490
Li	      6.31700      8.47985      6.37089         0.005572      0.011777     -0.024368
Li	      8.36224      8.55797      8.49735        -0.006129      0.030750     -0.042376
Li	      6.30493      6.48673      8.40342        -0.064430      0.126450     -0.008445
Sc	      0.07492      2.10303      2.13312         0.011712      0.017650      0.026529
Sc	      6.44167      4.36718      6.35321         0.059629      0.096551     -0.026366
Sc	      8.37905      6.37242     10.52008         0.049158     -0.057004     -0.002062
Mn	      6.36896      4.25598      2.16593         0.069354     -0.015766      0.022446
V	      6.28233      4.28252     10.52541         0.033467      0.026252     -0.058624
V	      4.19675      6.38482      6.40424         0.039384     -0.099840     -0.032224
Fe	      4.10057      4.14433      0.02925         0.131547     -0.041230      0.028776
Fe	      6.26118      2.18767      4.19978         0.165815     -0.045754      0.105978
Cu	      8.41095      6.43612      6.40755        -0.001414     -0.013481      0.013080
O	      2.10440      1.93701      2.18124        -0.027871      0.000999     -0.040810
O	      4.32673      4.24930      1.99512        -0.014152      0.049439      0.045932
O	      4.29776      2.16027      4.45571        -0.118165     -0.018463     -0.103671
O	      6.38926      4.15786      4.32495        -0.006910      0.032198      0.041218
O	      6.35744      2.11205      6.35086         0.002702     -0.006581     -0.020296
O	      8.51488      4.21160      6.42526        -0.134621     -0.249205      0.023017
O	      1.96685      4.29894      4.18033        -0.003731      0.097205      0.025667
O	      4.16229      6.44123      4.26304        -0.051232      0.043442     -0.057129
O	      4.26872      4.55281      6.32029         0.006535      0.225680      0.025286
O	      6.21966      6.42136      6.39947         0.005722      0.016686     -0.032141
O	      6.33916      4.22044      8.47958        -0.028677     -0.072767      0.024865
O	      8.46722      6.42266      8.41107         0.024504     -0.017985      0.110604
O	      2.16859      6.38312      6.30314        -0.141029      0.046191     -0.074489
O	      4.19155      8.48823      6.22081         0.049545     -0.062459     -0.038351
O	      4.12013      6.49744      8.29066        -0.010954     -0.061785      0.053366
O	      6.30877      8.69028      8.62006        -0.047313      0.012921     -0.065429
O	      6.29203      6.43974     10.70572         0.053520     -0.010402     -0.034137
O	      8.45725      8.50032     10.55646        -0.036082     -0.066396      0.032734
