# total energy = -238.59201024 eV
 
CRYSTAL
PRIMVEC
0.000968 6.468596 6.293533 
6.429420 -0.023364 6.317948 
4.273448 4.315692 -0.002805 
PRIMCOORD
36 1
Li	      4.30838      8.58638      8.41251         0.001532     -0.004420      0.034512
Li	      6.47642      8.55660     10.52529         0.037947     -0.014415      0.054922
Li	     10.47809      6.57447      8.32138        -0.013489      0.038926     -0.024940
Li	      8.40910      4.62462      8.32340        -0.046586      0.058209     -0.030237
Li	      8.52103      6.51147      6.49091        -0.038359      0.006520     -0.078556
Li	      6.42353      4.21318      6.52642         0.004106     -0.043731     -0.040661
Li	      8.54436      6.47313     10.24029        -0.001718      0.021380      0.004017
Li	      8.62014      8.37994      8.31918         0.040078      0.012088     -0.049705
Li	      6.67294      6.39010      8.32180        -0.041994     -0.048028     -0.019085
Sc	     10.68112      4.38970      6.39846        -0.129837      0.060840     -0.076794
Sc	      2.17881      2.14347      4.15532         0.004861      0.082168      0.048951
Sc	      6.38829      4.28805     10.34641        -0.017816      0.130933     -0.165665
Mn	      2.12857      2.18624      0.05972        -0.117177      0.035981     -0.016735
V	      6.44015     10.60736      8.43254        -0.081521      0.083698     -0.041092
V	      4.32340      6.48441     10.49735         0.016615      0.039820      0.107089
Fe	      4.21676      4.27286      4.19314        -0.015206      0.018531     -0.066729
Fe	      4.34121      6.39246      6.38600        -0.045211      0.007069     -0.003224
Ni	      6.43946      8.58656      6.31655        -0.031657     -0.026285     -0.043843
O	      8.56706      6.48873      8.38157         0.000592      0.067166     -0.030634
O	      2.15909      1.86528      2.06067         0.023849     -0.002684     -0.056546
O	      4.40660      4.26163      2.18284         0.071061      0.003013      0.029780
O	      4.23370      2.23137      4.21290         0.032870     -0.146965      0.002104
O	      6.45696      4.33688      4.11379        -0.013569     -0.008806      0.016708
O	      6.63885      2.08315      6.32192         0.112666     -0.016734      0.029244
O	      8.63075      4.35227      6.20023         0.001939     -0.033894      0.103993
O	      2.17322      4.25179      4.20780        -0.066653     -0.031985     -0.062399
O	      4.30945      6.43684      4.30430         0.010181     -0.025895     -0.023502
O	      4.24536      4.40316      6.17936         0.080176     -0.001436      0.066717
O	      6.27559      6.54780      6.28695         0.071040     -0.064378     -0.051506
O	      6.44244      4.28836      8.43426        -0.018833     -0.013351      0.073606
O	      2.16722      6.37218      6.40089         0.047555      0.060537      0.018394
O	      4.18109      8.59603      6.30366        -0.024573     -0.040981      0.076497
O	      4.15036      6.45523      8.43092         0.027632     -0.001587     -0.023275
O	      6.40491      8.81708      8.36726         0.005489     -0.125239      0.150691
O	      6.30699      6.42318     10.56326         0.131681     -0.039929      0.039583
O	      8.59762      8.72006     10.66216        -0.017670     -0.036136      0.048322
