# total energy = -243.69194744 eV
 
CRYSTAL
PRIMVEC
0.015647 6.367475 6.369072 
6.488956 0.003636 6.381285 
4.313039 4.239753 0.015998 
PRIMCOORD
36 1
Li	      8.57267      2.16519      6.34306        -0.027402     -0.012700      0.026629
Li	      6.45432      2.15367      4.35512        -0.047572     -0.004366      0.040400
Li	      6.45777      6.31149      4.38748         0.034005     -0.020131     -0.017086
Li	      4.31885      4.29040      4.31975        -0.022174      0.022933     -0.041458
Li	      4.35990      2.17153      6.21119        -0.014127     -0.001859     -0.045846
Li	      6.43907      4.16690      6.36532        -0.015582     -0.017288     -0.002395
Li	      4.31137      8.44236      4.33972         0.027999      0.049653      0.032364
Li	      4.39276      6.39015      6.22555         0.016140      0.035540     -0.053837
Li	      8.61969      8.50360      8.52247        -0.030231      0.004955     -0.006805
Sc	      6.51139      6.40580     12.67233         0.010844     -0.102682     -0.033733
Sc	      2.16582      4.17826      2.21126        -0.032272      0.009772     -0.018823
Sc	      6.44500      6.36293      8.46770        -0.010990     -0.048894      0.015961
Mn	      2.21160      6.35454      8.50647         0.027525     -0.014095     -0.032013
V	      8.50299      4.20654      4.34353         0.114588     -0.014451     -0.015082
V	      2.30830      4.18336      6.28596        -0.206579      0.051212      0.016865
Fe	      4.32502      2.09681      2.17705        -0.031331     -0.007521     -0.036249
Fe	      6.48505      2.21755      8.46595        -0.042976     -0.025024      0.084066
Fe	      8.81974      6.55054     10.64619        -0.209089     -0.076934      0.091113
O	      2.05947      2.13294      2.14476        -0.012293      0.059173     -0.022286
O	      4.27252      4.31163      2.11644        -0.033253      0.061508      0.032334
O	      4.33827      1.91817      4.20332         0.019526     -0.001062      0.131060
O	      6.69436      4.17391      4.32971        -0.107742     -0.015015      0.032970
O	      6.44305      2.09578      6.51905         0.008434      0.014570     -0.105501
O	      8.72565      4.21250      6.34667        -0.029398      0.017001      0.043569
O	      2.16071      4.32083      4.29235         0.009265      0.074291     -0.045108
O	      4.24225      6.40500      4.13476         0.166081     -0.031735      0.013253
O	      4.08892      4.26555      6.31058         0.218698      0.008685      0.014102
O	      6.43751      6.48217      6.39913         0.034885     -0.034343     -0.030232
O	      6.56819      4.24155      8.43569         0.017862      0.015233     -0.003139
O	      8.63218      6.34711      8.64291         0.031668     -0.016415     -0.044719
O	      2.15574      6.30161      6.25205         0.015104     -0.008854      0.035699
O	      4.55697      8.53961      6.47006         0.009077      0.018187     -0.068030
O	      4.38118      6.29332      8.67819         0.054734     -0.026357     -0.008946
O	      6.53321      8.45133      8.35727         0.056242     -0.039391      0.028234
O	      6.37776      6.36362     10.61968         0.053995      0.028567      0.003655
O	      8.66510      8.50359     10.69989        -0.053666      0.047836     -0.010985
