# total energy = -231.31712053 eV
 
CRYSTAL
PRIMVEC
-0.022967 6.399926 6.293172 
6.419263 0.001378 6.268365 
4.302852 4.273640 -0.022483 
PRIMCOORD
36 1
Li	      4.27555      4.27611      0.09118        -0.048521     -0.054299     -0.012190
Li	      6.36849      4.21509      2.07955        -0.015071     -0.011615      0.000118
Li	     10.54146      6.39871      8.47133         0.014443      0.032408     -0.023165
Li	      6.49487      4.23197     10.32642        -0.035064      0.023224      0.096379
Li	      2.20124      6.29246      4.09567        -0.021307      0.004567     -0.028104
Li	      2.26120      4.22924      6.21199         0.010372     -0.014751     -0.000625
Li	      4.28559      6.38886      6.35565         0.034588      0.064579      0.014359
Li	      4.33761      4.18771      8.31532         0.014644     -0.040449      0.057362
Li	      6.45060      6.37685      8.36811        -0.000717      0.036259      0.010326
Sc	      4.34663      6.36429     10.34505         0.063529     -0.024437     -0.001650
Sc	      6.24225      6.48016      4.13967        -0.037112      0.008959      0.004143
Sc	      6.38687      4.31963      6.42991        -0.002748      0.050260      0.052527
Mn	      8.55114      6.42266      6.33915         0.010104      0.007534      0.032544
V	      2.19415      8.28459      6.34274         0.076038     -0.081443     -0.075052
V	      6.46835      8.48236     10.36077         0.050154     -0.019492     -0.131568
Ni	      4.27756      8.56736      8.31457         0.039114     -0.059153     -0.035088
Ni	      8.57882      4.35022      8.37571        -0.068226     -0.004902     -0.027250
Ni	      4.23860      4.31198      4.14067         0.038687     -0.014634      0.046497
O	      2.12506      2.17314      1.89367        -0.070484     -0.079951      0.023312
O	      4.22491      4.14686      2.11960         0.093389      0.150953     -0.086443
O	      4.40229      2.11912      4.29293        -0.015383      0.015834      0.043829
O	      6.48443      4.24964      4.18201         0.007235      0.001338     -0.008643
O	      6.64477      2.20363      6.11613         0.033189     -0.004175      0.047420
O	      8.54723      4.39478      6.24608         0.004928      0.121984     -0.071216
O	      2.16236      4.22266      4.17386        -0.070367     -0.046121      0.095728
O	      4.30122      6.35517      4.16874         0.002846      0.050584      0.016042
O	      4.30617      4.10519      6.27202         0.017704      0.007501      0.025327
O	      6.39779      6.38350      6.18481        -0.017344      0.012405     -0.020700
O	      6.45175      4.30154      8.38318        -0.078727     -0.030976     -0.031675
O	      8.58579      6.40557      8.21117        -0.017326      0.099684      0.012949
O	      2.10892      6.57465      6.32460         0.004479     -0.084549     -0.020683
O	      3.95376      8.58231      6.24072        -0.133054     -0.017631     -0.072877
O	      4.26627      6.53807      8.39007        -0.009534     -0.111223      0.015351
O	      6.39206      8.60693      8.57834         0.092642     -0.010449      0.016375
O	      6.40160      6.58748     10.48792         0.006654      0.005361      0.019817
O	      8.45579      8.55525     10.61559         0.026249      0.016817      0.016523
