# total energy = -239.21163600 eV
 
CRYSTAL
PRIMVEC
0.016055 6.480798 6.292641 
6.581196 0.070545 6.240036 
4.418888 4.314790 0.015914 
PRIMCOORD
36 1
Li	      2.20502      2.13651      0.22162        -0.011893     -0.005190     -0.093441
Li	      1.99899      0.29321      2.05990        -0.011688     -0.016400     -0.000795
Li	      4.11415      2.32670      2.03761        -0.029560     -0.000135      0.027576
Li	      0.28969      2.04583      2.16720         0.029766      0.058859     -0.037479
Li	      2.31063      4.09078      2.11746         0.011789      0.031399      0.018729
Li	      2.03807      2.15629      3.97758        -0.003722     -0.000102      0.027912
Li	      4.44212      4.50065      3.99803         0.007686      0.012678     -0.033987
Li	      6.66669      4.36338      6.25969        -0.016340      0.002168      0.005616
Li	      2.40693      6.45436      4.27833         0.022031      0.023493      0.011615
Sc	      8.66462      4.38081      4.18456        -0.018053     -0.032217     -0.009786
Sc	      6.53225      2.27201      4.16382         0.002945      0.011186     -0.073364
Sc	      4.47816      4.31408      8.36784        -0.005463     -0.043517      0.130062
Mn	      4.44999      4.30135      0.13339        -0.012649      0.057466     -0.005351
Mn	      6.63337      6.47102      8.36574         0.031057     -0.016011     -0.015430
V	      8.77304      6.48322      6.26797        -0.039494      0.000818      0.000027
V	      2.24150      4.35827      6.05278         0.064697     -0.024810      0.155291
Co	      4.35906      6.55031      6.21938         0.026050      0.055754      0.055410
Cu	      4.46866      8.58627      4.21341         0.055362      0.071564     -0.059034
O	      2.22181      2.17360      2.06999        -0.014615     -0.023165     -0.032007
O	      4.43368      4.30171      1.98632        -0.011371      0.013006      0.040685
O	      4.42663      2.16300      4.35529        -0.042461      0.066245     -0.150298
O	      6.64878      4.27574      4.16430        -0.055218      0.012283      0.007072
O	      6.33195      2.15298      6.26168         0.035596     -0.027387      0.080247
O	      8.76483      4.53871      6.23738        -0.040942     -0.093578      0.059965
O	      2.36885      4.39156      4.32165         0.134090      0.035493     -0.173496
O	      4.39445      6.62922      4.24334         0.013562     -0.102837      0.035038
O	      4.28364      4.23566      6.30824         0.046228      0.074267     -0.046432
O	      6.73893      6.62983      6.23484        -0.070342     -0.048824     -0.051244
O	      6.55215      4.53411      8.43909         0.014323     -0.060721     -0.068162
O	      8.64473      6.54474      8.20606         0.029647     -0.044966      0.128394
O	      2.26279      6.27054      6.35717         0.081180      0.099984     -0.023974
O	      4.66049      8.69073      6.23328        -0.064183     -0.084313      0.105410
O	      4.64046      6.43589      8.34881        -0.016554      0.031169     -0.087875
O	      6.71353      8.43880      8.34545        -0.008003     -0.007995      0.002179
O	      6.51145      6.52528     10.60950        -0.029279      0.038117      0.028836
O	      8.61720      8.76183     10.45995        -0.104179     -0.063780      0.042092
