# total energy = -240.65901134 eV
 
CRYSTAL
PRIMVEC
-0.010316 6.543101 6.285351 
6.345231 0.010065 6.264922 
4.236818 4.354454 0.000372 
PRIMCOORD
36 1
Li	      8.34344      2.32036      6.25849        -0.013475      0.052409     -0.037535
Li	      4.20107      2.19597      2.12331        -0.007925     -0.024587      0.007715
Li	      8.38301      4.36696      4.21168        -0.004667     -0.007163     -0.019640
Li	      6.44977      2.24829      4.25661        -0.012485      0.048290      0.052839
Li	      2.13738      4.27167      2.04673        -0.017506      0.002918     -0.074216
Li	      2.14443      2.09400      4.12356         0.029222     -0.048644      0.005225
Li	      4.26350      4.31144      4.17362         0.018839     -0.046831      0.005834
Li	      6.44731      4.27421      6.16434         0.055410     -0.002911      0.042115
Li	      6.30222      6.57935      8.42076        -0.018043     -0.005720     -0.017558
Sc	      6.33603      4.38628      2.25096         0.052981      0.037114      0.066180
Sc	      6.27838      4.44348     10.36402        -0.094850      0.013083      0.140920
Sc	      4.30892      6.45851      6.26582         0.002617     -0.097980      0.163259
Mn	     10.55582      4.36017      6.27483        -0.113682      0.137395      0.003110
Mn	      6.34954      2.24283      8.34606        -0.042661     -0.095956     -0.065474
V	      4.25784      2.14010      6.13499        -0.022865      0.344839      0.011653
V	      6.35452      8.64867      6.28414         0.175310     -0.106431     -0.074599
Co	      8.48004      8.74930      8.43412         0.039728     -0.004659     -0.317861
Ni	      8.42476      6.57715     10.42964         0.041088      0.093096     -0.072624
O	      1.93548      2.12843      2.05497        -0.019756     -0.013427      0.016166
O	      4.22975      4.30857      1.94904        -0.001358     -0.012898     -0.102379
O	      4.22440      2.22912      4.38037        -0.015010      0.011153      0.048165
O	      6.33676      4.36120      4.18249        -0.037311      0.006851     -0.007795
O	      6.23592      2.19889      6.34267         0.118763      0.031784      0.053227
O	      8.57332      4.56276      6.26689         0.046420     -0.314085      0.045057
O	      2.09398      4.43347      4.39073        -0.033561     -0.081713      0.048317
O	      4.17991      6.58373      4.14241         0.093574      0.034102     -0.023835
O	      4.13965      4.30969      6.28082        -0.066621      0.001994     -0.086101
O	      6.42696      6.66804      6.28553        -0.135469     -0.109987      0.002421
O	      6.38558      4.41161      8.36716        -0.243109      0.062751      0.038369
O	      8.59660      6.63849      8.27562         0.093643     -0.041050     -0.064253
O	      2.08792      6.37486      6.27226        -0.189172     -0.050000      0.073758
O	      4.33387      8.58842      6.26258         0.074947      0.028853     -0.053185
O	      4.18644      6.50943      8.30689        -0.040993      0.154897      0.008184
O	      6.32531      8.75388      8.16873         0.166359     -0.012387      0.045438
O	      6.36777      6.51731     10.60213        -0.073767     -0.025100      0.079967
O	      8.45339      8.65860     10.49063         0.195386      0.039998      0.059138
