# total energy = -242.19475478 eV
 
CRYSTAL
PRIMVEC
0.000072 6.441373 6.383772 
6.321132 0.020112 6.363692 
4.231819 4.298248 -0.004373 
PRIMCOORD
36 1
Li	      8.33369      2.22355      6.34972         0.028738      0.014166      0.053340
Li	      4.18979      2.24522      2.16303        -0.037746      0.008065      0.014608
Li	      6.43084      8.54490     10.70139         0.069908      0.030277     -0.018750
Li	     10.49979      6.47352      8.49031        -0.023259     -0.036097     -0.031185
Li	      8.41390      4.39790      8.48349         0.055341      0.030495      0.016419
Li	      4.19880      4.27886      4.20559        -0.021767     -0.030111     -0.029443
Li	      6.36651      4.24684      6.52890         0.018497     -0.015117      0.055968
Li	      8.33662      6.59191     10.43512         0.006195      0.042957     -0.072613
Li	      6.46106      6.31843      8.58442         0.022658      0.042540     -0.009406
Sc	      4.28277      6.44484     10.61039        -0.042079      0.037732      0.048445
Sc	      8.52592      6.47317      6.47693         0.073633      0.021546      0.027549
Sc	      4.21431      6.44053      6.40243         0.016283     -0.050679      0.006289
Mn	      6.32821      4.31547     10.52689        -0.057537      0.023627     -0.043301
Mn	      2.10432      4.30506      6.35457         0.054396      0.016333      0.070323
V	      6.22314      4.26251      2.11839        -0.172847      0.018115      0.089590
V	      6.29043      6.40332      4.15400         0.093866     -0.018850     -0.143765
Co	      6.33713      0.06084      6.35065        -0.089536      0.122819      0.052778
Co	      8.49081      8.57091      8.51905         0.195033      0.014886      0.032179
O	      2.12421      1.95590      2.27440        -0.022031     -0.123681      0.046181
O	      4.32387      4.28118      1.94384         0.158653     -0.075890     -0.066205
O	      4.02938      2.14131      4.28022        -0.073240     -0.091278      0.014347
O	      6.34209      4.37672      4.14049         0.041313      0.053787     -0.085750
O	      6.32535      2.03381      6.36876        -0.049492     -0.071920     -0.029801
O	      8.58863      4.34621      6.34231         0.022629      0.036417     -0.102028
O	      1.98741      4.09322      4.18178        -0.038292     -0.098015      0.018804
O	      4.34997      6.35782      4.31451         0.031430      0.054021      0.098973
O	      4.22046      4.33067      6.38100         0.054692      0.001618      0.340048
O	      6.30310      6.39773      6.22842        -0.035777      0.024247      0.021542
O	      6.30811      4.31500      8.60556        -0.433504      0.000137     -0.009555
O	      8.38837      6.48599      8.46109        -0.006812     -0.052598      0.099949
O	      2.03277      6.50844      6.50029         0.064026      0.006129     -0.022744
O	      4.23788      8.66956      6.21951        -0.066229     -0.084834     -0.049707
O	      4.15663      6.51642      8.48478        -0.013951      0.127631     -0.022449
O	      6.37278      8.85679      8.53964         0.185343      0.057457      0.010001
O	      6.33710      6.52756     10.75223        -0.009874     -0.033888      0.037542
O	      8.57750      8.65116     10.60667         0.001340     -0.002044     -0.418174
