# total energy = -237.04921536 eV
 
CRYSTAL
PRIMVEC
-0.015174 6.409921 6.447860 
6.224992 -0.046721 6.479670 
4.178028 4.322923 -0.060379 
PRIMCOORD
36 1
Li	      4.22019      4.25571      0.10505        -0.007786      0.018657     -0.005283
Li	      6.11789      4.31717      2.21045         0.080782      0.018404      0.121255
Li	      4.18607      2.34477      2.12150         0.027365      0.001812      0.000597
Li	      2.15394      4.23096      2.26159        -0.032862      0.071198      0.050362
Li	      2.21094      2.17703      4.17299         0.081166     -0.036293     -0.080926
Li	      4.17796      4.20601      4.28900         0.026716      0.051143     -0.000337
Li	      6.21246      4.24039      6.33243        -0.003080     -0.001099     -0.025480
Li	      4.22843      8.55290      4.29663        -0.043523      0.016344     -0.038422
Li	      4.17622      6.47938      6.28032         0.052814      0.017657     -0.055193
Sc	      2.23247      2.25821      0.05002        -0.087521      0.089806     -0.134383
Sc	      4.22742      6.32197      2.07697        -0.228344      0.299333      0.056369
Sc	      4.09344      4.26386      8.47962        -0.090919     -0.088381      0.200888
Mn	      4.13192      0.03513      4.31453         0.040778     -0.191850      0.033370
Mn	      6.19600      2.17401      4.30697         0.216490     -0.008375     -0.021219
V	      2.12190      6.33717      4.38804         0.083042      0.027043     -0.383965
V	      6.20558      6.32450      8.45791         0.035815     -0.016579      0.117370
Cu	      6.15285      8.53333      6.38908         0.002838     -0.102795     -0.114053
Ni	      4.17745      2.08431      6.41146        -0.038946     -0.095471      0.133005
O	      2.05925      2.18324      2.11215         0.168874      0.003227     -0.021259
O	      4.16162      4.38207      2.12791         0.050520     -0.248362     -0.038304
O	      4.24453      2.12317      4.36638        -0.057291      0.091079     -0.119761
O	      6.33355      4.11435      4.24224        -0.072848      0.036426      0.021406
O	      6.24207      2.15203      6.54151         0.139688      0.000229      0.021277
O	      8.37368      4.30688      6.16895         0.015668     -0.136156     -0.020333
O	      2.02355      4.56033      4.31857         0.004048      0.094547      0.114819
O	      3.93549      6.50274      4.21331        -0.021911     -0.008266      0.022880
O	      4.01995      4.16091      6.48385        -0.154023      0.101649     -0.139346
O	      6.24925      6.25262      6.66188        -0.111434     -0.024639      0.031361
O	      6.16645      4.32796      8.70693         0.012066      0.001452     -0.041247
O	      8.24232      6.42622      8.66514         0.020701     -0.000706      0.016179
O	      2.06181      6.55518      6.17725        -0.015851     -0.039748      0.116017
O	      4.18485      8.57603      6.36265         0.164975      0.007033      0.056037
O	      4.22983      6.31859      8.78316        -0.063909      0.036048      0.010795
O	      6.20344      8.33989      8.59823        -0.033270      0.065061      0.018138
O	      6.30646      6.53603     10.59197        -0.080127     -0.020119      0.035628
O	      8.17953      8.46700     10.72930        -0.080701     -0.029311      0.061759
