# total energy = -240.61558481 eV
 
CRYSTAL
PRIMVEC
-0.025051 6.694802 6.222383 
6.245948 0.008980 6.189462 
4.171189 4.447305 -0.001959 
PRIMCOORD
36 1
Li	      4.16201      8.84145      8.33783         0.052966      0.019874     -0.045309
Li	      4.13128      0.25255      4.06810         0.041184      0.094114      0.036168
Li	      6.10265      2.21368      4.13691        -0.040694     -0.031654     -0.014041
Li	      4.16255      4.36432      4.33487        -0.037972     -0.036128     -0.037704
Li	      4.09448      2.41682      6.12479         0.034006      0.054338      0.016483
Li	      6.18916      4.49413      6.14455         0.036259      0.004531      0.032038
Li	      4.17303      8.84791      4.18923         0.033681     -0.019723      0.013761
Li	      6.30190      8.83512      6.23482        -0.073167      0.038633      0.030610
Li	      4.20629      6.65657      6.17471        -0.038229     -0.054491      0.075258
Sc	      6.16760      6.64430     12.28887         0.182133     -0.000509     -0.031535
Sc	      0.02437      2.23599      2.06933        -0.075911     -0.009531     -0.117228
Sc	      4.16344      4.52231      8.19010        -0.008108      0.049842      0.148433
Mn	      8.34150      8.94132     12.32769        -0.013036     -0.153738     -0.020465
Mn	      8.31186      4.47141      8.26299         0.003190      0.019192      0.084568
V	      6.26657     11.06955      8.37780         0.002772     -0.191169     -0.506005
V	      2.12580      6.62945      4.18376        -0.081463     -0.000016      0.164396
Fe	      6.33501      6.70412      4.33080        -0.265976      0.105159     -0.139797
Cu	      6.19263      6.71967      8.20767        -0.049634      0.040593      0.015635
O	      2.08446      2.11830      2.06581         0.049100     -0.026163     -0.031783
O	      4.13439      4.54229      2.00592        -0.045636      0.025959      0.052005
O	      4.01838      2.22966      4.17118         0.193507      0.038310     -0.031771
O	      6.21603      4.60568      3.93682         0.012104      0.112157      0.425901
O	      6.40803      2.13750      6.16296        -0.065880     -0.019004     -0.047173
O	      8.32996      4.40452      6.31674        -0.164972      0.007484     -0.121372
O	      2.07944      4.52929      4.01424         0.022728     -0.036876      0.016396
O	      4.16278      6.67012      4.14086         0.169280     -0.018905      0.039722
O	      4.18014      4.43407      6.26876         0.029066      0.000537     -0.108427
O	      6.20395      6.75369      6.23328         0.012316     -0.014492      0.067162
O	      6.33884      4.35258      8.25733        -0.005323     -0.205502     -0.003090
O	      8.33272      6.73420      8.28836        -0.006514      0.006815     -0.085972
O	      2.03351      6.69175      6.34028         0.017585     -0.016974     -0.010794
O	      3.99216      9.02728      6.18661         0.058854      0.019280      0.029205
O	      4.06725      6.62569      8.31749         0.057151     -0.000107      0.029942
O	      6.23389      9.16548      8.31206        -0.013939      0.232602      0.056981
O	      6.32915      6.67815     10.21937        -0.043659     -0.008148      0.031854
O	      8.34970      8.62979     10.37841         0.022230     -0.026289     -0.014049
