# total energy = -244.43274502 eV
 
CRYSTAL
PRIMVEC
0.023980 6.449958 6.459326 
6.339727 0.057166 6.425820 
4.265774 4.317012 -0.001138 
PRIMCOORD
36 1
Li	      6.38321      0.17086      6.39585         0.030136      0.076423      0.012742
Li	      8.33602      2.23232      6.42091         0.004198      0.003713      0.033662
Li	      6.46942      8.57373     10.87262         0.010881     -0.003071      0.061244
Li	      6.22085      2.20193      8.43384        -0.045432     -0.039157      0.041013
Li	      8.46373      4.52748      8.45701         0.030827      0.018144     -0.047397
Li	      8.61542      6.46587      6.61097        -0.036180      0.021152      0.010353
Li	      8.39308      6.60076     10.65824         0.016311      0.048159      0.026655
Li	      2.10352      4.40913      6.47845         0.008437      0.016879     -0.041430
Li	      8.51657      8.50354      8.67231         0.003565      0.021856      0.054992
Sc	      2.12806      2.17035      4.26308        -0.111957      0.000737     -0.018174
Sc	      4.18984      4.30389      4.27226        -0.021398      0.065741     -0.057108
Sc	      4.20034      6.46505      6.48194        -0.039427     -0.059643     -0.090948
Mn	      6.38215      4.24017      6.52742         0.028425     -0.012535     -0.007774
Mn	      6.47885      6.53757      8.60750         0.030006      0.073187      0.004952
V	      4.28371      8.65907      8.48559         0.152933      0.171443     -0.086365
V	      6.34439      4.38507     10.73248         0.018597     -0.055279      0.037937
Fe	      6.33215     10.75496      8.50546        -0.169576     -0.158781      0.115641
Fe	      8.57740     10.72487     10.85572        -0.085527      0.079734     -0.061183
O	      2.24842      2.02384      2.17214         0.235129      0.084592     -0.039834
O	      4.31377      4.29958      2.15258        -0.117164     -0.038237      0.074303
O	      4.20900      2.18829      4.12523         0.010024     -0.084346     -0.131704
O	      6.40845      4.34865      4.12462         0.006350      0.015173     -0.015802
O	      6.34266      2.36460      6.47090        -0.005509     -0.001121      0.000299
O	      8.34807      4.36793      6.32293        -0.067584      0.005690      0.111945
O	      2.12834      4.23601      4.36148         0.012838     -0.035733     -0.007560
O	      4.27983      6.45330      4.33968         0.040622     -0.024122      0.015139
O	      4.37219      4.35617      6.35180         0.021112     -0.016963     -0.027352
O	      6.33679      6.28083      6.38899        -0.009046     -0.010857     -0.013519
O	      6.42041      4.47541      8.75957        -0.013175      0.086272     -0.040872
O	      8.34679      6.54343      8.61942        -0.074200     -0.001946     -0.006105
O	      2.17785      6.43351      6.59443         0.073172      0.019669     -0.144972
O	      4.31683      8.55328      6.43132        -0.000549     -0.015307      0.168092
O	      4.36053      6.55145      8.60855         0.022012     -0.031435      0.063311
O	      6.30043      8.66515      8.55658        -0.054886     -0.203172      0.008923
O	      6.28376      6.46486     10.79610         0.071855      0.046729     -0.022227
O	      8.62816      8.76451     10.74154         0.024178     -0.063590      0.019122
