# total energy = -236.42325955 eV
 
CRYSTAL
PRIMVEC
0.067137 6.339439 6.434100 
6.395663 0.003931 6.497889 
4.250930 4.254635 0.015640 
PRIMCOORD
36 1
Li	      8.37533      2.15351      6.52398         0.029666      0.051154     -0.003265
Li	      4.25979      2.14113      2.38532         0.023175      0.042554      0.023191
Li	      4.12829      0.24337      4.34463         0.069861     -0.068441     -0.050865
Li	      6.44730      2.03693      8.49730        -0.000392      0.034916     -0.038453
Li	      2.39865      1.96789      4.28477        -0.001661      0.055717     -0.010544
Li	      4.35990      4.12377      4.34171        -0.019341      0.065924      0.010553
Li	      4.44787      2.10457      6.26706        -0.005026      0.002452      0.047692
Li	      6.39142      4.09336      6.33807         0.016532     -0.055384     -0.021687
Li	      4.28248      6.32649      6.44930        -0.024935      0.030639     -0.011364
Sc	      4.23291      8.43101      4.40937        -0.059993      0.019279     -0.035341
Sc	      2.22118      4.24753      6.41098        -0.006192      0.047591      0.042810
Sc	      4.37006      4.17114      8.51050         0.018134     -0.006470      0.029957
Mn	      6.33556      4.36200      2.24417         0.043855     -0.032985     -0.052534
Mn	      2.18309      6.36335      4.30721        -0.046429      0.039388     -0.037845
V	      2.24840      4.11138      2.02227        -0.065880      0.152139     -0.150399
V	      6.38967      6.33752      8.51512        -0.001083     -0.050992      0.147585
Ni	      6.38897      0.10789      6.53303        -0.031306     -0.077486     -0.059665
Ni	      6.26633      2.19913      4.44065         0.164882     -0.046020     -0.129110
O	      2.11544      2.30536      2.25632         0.002322     -0.123193      0.054640
O	      4.20434      4.27985      2.12916         0.084192      0.003234      0.106678
O	      4.28985      2.12897      4.34314        -0.131587      0.012209     -0.003637
O	      6.38471      4.24771      4.12675         0.033263      0.103943      0.034085
O	      6.42299      2.10607      6.44971         0.017033      0.092005      0.109243
O	      8.56909      4.25849      6.70182        -0.083920     -0.037127      0.109478
O	      2.12165      4.36797      4.28137         0.003240     -0.054842      0.025137
O	      4.07478      6.41535      4.34336         0.008875     -0.004850      0.046370
O	      4.25919      4.24862      6.53221        -0.009967     -0.016423      0.006181
O	      6.38278      6.38987      6.73142        -0.048001      0.034575     -0.144670
O	      6.48448      4.34169      8.67675        -0.022009     -0.014713     -0.013669
O	      8.41463      6.25065      8.64007        -0.009608      0.002216      0.037992
O	      2.17340      6.35176      6.66928         0.074177     -0.027509      0.068973
O	      4.39222      8.57407      6.38628        -0.005991     -0.078906     -0.023299
O	      4.39601      6.25837      8.67171        -0.089442      0.001295      0.004571
O	      6.49127      8.37373      8.58458        -0.011423      0.000994     -0.051606
O	      6.55722      6.36663     10.64076         0.042232     -0.086096     -0.045280
O	      8.55715      8.32204     10.72581         0.042747     -0.010787     -0.021905
