# total energy = -243.71554048 eV
 
CRYSTAL
PRIMVEC
0.033143 6.330109 6.475188 
6.367499 0.040708 6.467654 
4.266560 4.236459 0.005699 
PRIMCOORD
36 1
Li	      6.35674      4.23439      2.16710         0.002808      0.009619     -0.005550
Li	      8.49232      4.25364      4.34873        -0.019207     -0.008161     -0.006490
Li	      2.17340      4.20419      2.12158         0.033932     -0.061493      0.040272
Li	      8.43953      6.24958      6.52506         0.007159     -0.011703     -0.012492
Li	      6.44605      4.39222      6.46140         0.087799     -0.041792     -0.024777
Li	      8.49594      6.38022     10.80371         0.018517     -0.005218     -0.040714
Li	      6.33398      8.44998      6.42935        -0.000092      0.028178     -0.066625
Li	      4.41949      6.34742      6.51928         0.042723      0.047600      0.008410
Li	      6.49831      6.31699      8.41835         0.031883      0.005153     -0.007489
Sc	      8.54921      8.46837     12.89705         0.018919     -0.018652      0.053591
Sc	     10.60063      6.36660      8.61971        -0.011159      0.057450      0.063716
Sc	      6.47600      6.28855      4.46330        -0.011152      0.001072     -0.030680
Mn	      4.26588      4.23876      0.02562        -0.016530     -0.053248      0.008007
Mn	      4.33557      8.36674      8.63437         0.033324     -0.041592     -0.024925
Mn	      4.22581      4.24672      4.40180        -0.064991      0.085808      0.045800
V	      6.41815      4.40042     10.70764        -0.070208     -0.199477      0.000757
V	      4.12959      4.32454      8.44836         0.050465     -0.005203      0.168645
Ni	      6.36983      2.21035      4.34322         0.064891     -0.092507      0.036288
O	      2.09544      2.09391      2.11392        -0.026073     -0.000098     -0.039917
O	      4.22802      4.26512      2.19517         0.029263      0.004375     -0.006257
O	      4.29998      2.10269      4.28325        -0.066962     -0.029315      0.062451
O	      6.34789      4.23882      4.39759         0.051689      0.102831     -0.008230
O	      6.40632      2.11019      6.46169        -0.020152     -0.028359      0.069669
O	      8.69591      4.22585      6.50566        -0.011617      0.018688      0.019049
O	      2.02044      4.20273      4.27035         0.049325      0.060593     -0.046377
O	      4.30857      6.52411      4.27936        -0.003838     -0.009552     -0.011859
O	      4.21856      4.29353      6.69507         0.005734      0.042407     -0.158714
O	      6.42525      6.36135      6.42595         0.005875     -0.005224      0.049777
O	      6.24168      4.26478      8.75211        -0.028532     -0.025690     -0.101392
O	      8.56426      6.64608      8.63357        -0.060915      0.027713     -0.058519
O	      1.95760      6.36038      6.46150        -0.064628     -0.013637     -0.005476
O	      4.28755      8.48356      6.38634        -0.026386     -0.017468      0.001976
O	      4.28340      6.14373      8.62306        -0.013314      0.012288     -0.026831
O	      6.58810      8.46988      8.74332        -0.052870      0.005203     -0.083885
O	      6.40927      6.20213     10.76730        -0.018249      0.181814      0.078129
O	      8.60575      8.50418     10.74961         0.052569     -0.022404      0.060666
