# total energy = -249.73786984 eV
 
CRYSTAL
PRIMVEC
0.025852 6.335550 6.383356 
6.412847 -0.012857 6.423117 
4.275241 4.250508 -0.008760 
PRIMCOORD
36 1
Li	      0.09038      6.31289      6.36398         0.010666      0.011910      0.047166
Li	      8.51864      2.12558      6.38680        -0.046518      0.013763     -0.005361
Li	      4.33010      8.45585      8.50025         0.047366     -0.024317     -0.018037
Li	      6.49461      8.43471     10.68640         0.041162     -0.001411      0.015218
Li	      2.22907      2.10127      4.24701         0.003208     -0.052708     -0.005352
Li	      4.31677      2.10784      6.34896         0.026852     -0.005461      0.019672
Li	      8.54640      6.37423     10.64296         0.000400      0.003080     -0.086784
Li	      6.36347      8.48928      6.38270         0.027728     -0.027974     -0.013860
Li	      8.55958      8.52256      8.62707         0.012585      0.061877      0.004694
Sc	     10.68344      8.51456     10.71079        -0.001173      0.008927     -0.016138
Sc	      4.28626      6.36552      6.35310         0.097268     -0.038708     -0.020339
Sc	      6.53538      6.52135      8.51881         0.002825      0.021703     -0.058073
Mn	      4.28765      0.05007      4.31840        -0.070498      0.039516      0.026477
Mn	     10.62727      6.33277      8.54794        -0.021358      0.045390     -0.008029
Mn	      2.19048      4.15858      2.08633         0.000328     -0.038861     -0.015562
Mn	      4.23068      4.05241      4.27340         0.052921     -0.002610      0.057453
V	      6.42467     10.53167      8.46832        -0.020220     -0.008238      0.103719
V	      6.43156      4.16581      6.42737        -0.106160      0.088862     -0.076960
O	      1.93929      2.00719      2.14596        -0.011605     -0.046309      0.019774
O	      4.41070      4.14680      2.17529        -0.057286     -0.026333     -0.014881
O	      4.27046      1.98206      4.30826         0.039620     -0.047603     -0.020614
O	      6.50646      4.21753      4.16008        -0.072512     -0.009470      0.006337
O	      6.39437      2.22715      6.60428        -0.010190     -0.151458      0.042089
O	      8.38630      4.22399      6.50308         0.146307     -0.006425     -0.047713
O	      2.12913      4.20531      4.12430        -0.001172     -0.009039      0.087705
O	      4.18857      6.38777      4.20320        -0.004001     -0.007917     -0.053110
O	      4.45323      4.24418      6.29741        -0.086742      0.040147     -0.012896
O	      6.36067      6.24402      6.45964         0.010836      0.058242     -0.010694
O	      6.39703      4.31908      8.51959         0.019112     -0.000998      0.085560
O	      8.60570      6.28337      8.53929         0.051465      0.024326      0.025789
O	      2.18823      6.30773      6.64229        -0.071850      0.032661     -0.117619
O	      4.33214      8.40944      6.29607        -0.030196      0.037942      0.053414
O	      4.22797      6.38691      8.46768         0.018813      0.020858     -0.006469
O	      6.50570      8.54735      8.50111        -0.041093      0.013768      0.003341
O	      6.36629      6.36921     10.63206         0.051343     -0.019472      0.003486
O	      8.61860      8.63957     10.69076        -0.008233      0.002340      0.006594
