# total energy = -235.07998245 eV
 
CRYSTAL
PRIMVEC
-0.015722 6.345098 6.491602 
6.294773 -0.017248 6.493171 
4.180094 4.214686 0.005049 
PRIMCOORD
36 1
Li	      2.21547      8.29454      6.62927        -0.000688      0.040282      0.074673
Li	      2.04386      0.12861      2.09942        -0.010462     -0.034453     -0.045394
Li	      4.04886      2.12835      2.05899        -0.077404      0.045585     -0.058563
Li	      6.31064      8.40901     10.73583        -0.007840     -0.016122     -0.055543
Li	      2.11250      4.11800      2.32465         0.051556      0.030394      0.005406
Li	      4.17302      8.40880      4.30099        -0.040860      0.004016     -0.032438
Li	      2.10328      6.35124      4.34787         0.037380      0.029683      0.009652
Li	      4.03672      6.47433      6.55398         0.067198     -0.007084      0.161141
Li	      6.28827      6.29570      8.79548         0.021182      0.033488      0.055491
Sc	      0.05691      6.34611      6.49195         0.053840     -0.067735     -0.026286
Sc	      4.19112      6.31905     10.74588         0.060818      0.015214     -0.066684
Sc	      2.07675      4.22442      6.40482        -0.025620      0.092955      0.122389
V	      8.35676      6.30078      6.54876        -0.001402      0.076158     -0.030334
V	      8.32063      8.46910      8.74964        -0.266535      0.016939     -0.012508
Cr	      6.26508      4.21662      6.53820        -0.027351     -0.000470     -0.058078
Co	      0.01343      2.10070      2.14319         0.075149     -0.115382      0.094068
Cu	      4.19375      4.27180      4.20883        -0.066664     -0.142520      0.021694
Ni	      2.02466      2.13052      4.21565         0.082761     -0.018147      0.038607
O	      1.95039      2.12597      2.17499        -0.012299     -0.034738     -0.061777
O	      4.17457      4.36847      2.04990         0.016532      0.035305     -0.130147
O	      4.19427      2.16945      4.60987         0.045028     -0.050093      0.055901
O	      6.22873      4.26144      4.50136         0.068267     -0.104707      0.034507
O	      6.20975      2.18255      6.60425         0.015354     -0.013657      0.053822
O	      8.29634      4.33955      6.45702         0.009169     -0.074777     -0.011308
O	      2.18703      4.15376      4.36180        -0.096924      0.137327     -0.011140
O	      4.18297      6.25708      4.06823        -0.108065      0.069102     -0.188789
O	      4.24911      4.12156      6.65808         0.052338      0.020568      0.176534
O	      6.38158      6.24866      6.52196         0.012647     -0.041502      0.020763
O	      6.14071      4.08910      8.56751         0.058451      0.003872     -0.011533
O	      8.45154      6.36014      8.47238         0.065599      0.056076     -0.005512
O	      2.08629      6.27210      6.45153        -0.054941      0.013348      0.029115
O	      4.23356      8.48965      6.56163        -0.029275     -0.016942     -0.136918
O	      4.21324      6.21128      8.70678        -0.074797      0.005405      0.038565
O	      6.50630      8.35231      8.59303         0.088199      0.054096      0.043419
O	      6.20197      6.38065     10.89956        -0.007519     -0.055026     -0.033056
O	      8.37439      8.46906     10.66803         0.027177      0.013540     -0.059737
