# total energy = -139.61669622 eV
 
CRYSTAL
PRIMVEC
2.088615 -2.096325 4.171284 
0.002610 4.123416 4.135222 
-6.225371 -4.147535 2.087895 
PRIMCOORD
24 1
Li	     -3.13105     -1.09112      3.10398         0.003165      0.010306     -0.001489
Li	     -3.14840      0.99795      5.28179        -0.006882      0.001588      0.008244
Li	     -1.09357      0.96693      3.17379         0.013583     -0.000235      0.001382
Li	     -1.09925     -1.11405      1.09590         0.006953      0.000500      0.008470
Li	     -5.03379     -3.02192      3.04488        -0.012777      0.002174     -0.002795
Li	     -5.14608     -0.98543      5.09985        -0.002687     -0.007635     -0.000744
Mn	      1.05892      1.00966      5.19984         0.005487     -0.003811     -0.000138
Mn	     -1.05664     -1.07784      5.21581         0.001612     -0.015718      0.012083
Mn	      1.06478     -1.05916      3.12605         0.006557     -0.003503      0.008108
Ni	     -3.08921     -3.11915      5.17420        -0.009889      0.010396      0.044728
Ni	     -1.07751      0.98811      7.27891         0.050252      0.007619     -0.012381
Ni	     -3.08643     -1.03996      7.26412        -0.020476     -0.049747     -0.009185
O	     -3.25233     -1.07552      9.34656        -0.050355     -0.099508      0.096643
O	     -3.27478     -3.12544      7.26693        -0.056465     -0.087808      0.081577
O	     -1.00739     -2.98800      5.19924         0.113505      0.049629      0.106008
O	     -1.01676     -1.05891      7.11637         0.114498     -0.118165     -0.058774
O	      1.04558      1.11749      7.15122         0.083274      0.017593     -0.027931
O	      0.96692     -0.96576      5.10232         0.002644      0.012899     -0.009824
O	     -2.94710     -1.04638      5.18596         0.045760      0.109927     -0.103816
O	     -3.09700     -3.13886      3.14766        -0.144289      0.128425     -0.116832
O	     -0.90939      0.90594      5.19903         0.022979     -0.013809     -0.098168
O	     -0.88647     -1.06615      3.23417         0.024473      0.102798      0.014585
O	     -5.18610     -3.25026      5.33756        -0.097348     -0.027281      0.029804
O	     -5.21845     -1.20265      7.40657        -0.093573     -0.026635      0.030446
