# total energy = -234.46610527 eV
 
CRYSTAL
PRIMVEC
0.010278 6.239494 6.352541 
6.404180 -0.000592 6.363115 
4.246798 4.144125 0.022410 
PRIMCOORD
36 1
Li	      6.39585      6.25231     12.64877         0.020040      0.032909      0.003614
Li	      8.54162      8.33457     12.64205         0.016958     -0.031948      0.028866
Li	      4.33124      8.25472      8.52357         0.115270     -0.054522      0.018777
Li	      6.48526      8.22399     10.61100         0.024100     -0.002679      0.047549
Li	      2.19361      2.05849      4.26961         0.015949     -0.039699     -0.009900
Li	      8.50720      6.17211      6.36921         0.060340     -0.011144      0.015601
Li	     10.62995      8.31237     10.62389         0.026099     -0.032909     -0.012555
Li	      8.48836      8.29322      8.56059        -0.045702     -0.003452     -0.018711
Li	      6.38939      6.26645      8.53996        -0.010849     -0.003306      0.022371
Sc	      2.23462      6.25870      8.44857         0.033310      0.001085     -0.035857
Sc	      4.44708      6.19215     10.67465         0.027304      0.120380     -0.015104
Sc	      4.28066      4.04075      4.29889         0.097387      0.060534      0.052913
V	      6.38102      2.14823      8.40820        -0.002433     -0.027124      0.283828
V	      6.26692      8.23955      6.41570        -0.023462     -0.030480     -0.030712
Cr	      8.53613      4.15803      8.45226         0.104254     -0.003508     -0.077147
Co	      8.48994      6.28020     10.58832        -0.676310      0.469466      0.127081
Cu	      6.43054      4.21095      6.38643         0.081996     -0.001740     -0.179385
Cu	      4.28251      6.22391      6.38635         0.023327      0.074375      0.142167
O	      1.98113      2.13240      2.13176         0.142739     -0.017022     -0.037490
O	      4.21844      4.23683      2.14688         0.029005     -0.078695      0.018813
O	      4.26574      2.05870      4.26649        -0.005304      0.013016      0.005789
O	      6.38063      4.14944      4.26038        -0.011890     -0.032566      0.059028
O	      6.32530      2.19283      6.58379        -0.029548     -0.066559     -0.164633
O	      8.62486      4.14775      6.46039         0.113305     -0.042525      0.050695
O	      2.13968      4.26021      4.21723         0.087640     -0.489569     -0.028194
O	      4.07924      6.23976      4.02730         0.819924     -0.112108     -0.251723
O	      4.02276      4.20694      6.33158        -0.323154     -0.195027     -0.012041
O	      6.29319      6.24121      6.33289         0.041795      0.071781      0.080260
O	      6.52246      4.11981      8.39920        -0.102965      0.220833      0.036538
O	      8.59584      6.17490      8.62476         0.060364     -0.069472     -0.732185
O	      2.18194      6.16540      6.26226         0.077045     -0.167954      0.464543
O	      4.44773      8.22899      6.34382        -0.028086      0.197453     -0.052792
O	      4.21530      6.24506      8.60310        -0.028075     -0.025422      0.072235
O	      6.37117      8.34532      8.31701        -0.025107      0.009216      0.007530
O	      6.51040      6.24370     10.62396        -0.756397     -0.094749      0.065919
O	      8.53488      8.22921     10.64017         0.051132      0.363135      0.054316
