# total energy = -233.84153281 eV
 
CRYSTAL
PRIMVEC
0.011102 6.307948 6.294571 
6.307078 0.023507 6.282129 
4.226533 4.218794 -0.006114 
PRIMCOORD
36 1
Li	      8.49650     10.40283     10.50979         0.135837     -0.097846     -0.178664
Li	      6.41596      8.39755     10.53004         0.125480     -0.150148     -0.066287
Li	      6.34427      2.18119      8.33831        -0.119420      0.006030     -0.060545
Li	      8.30803      4.29704      8.32121        -0.082940      0.241416     -0.003182
Li	      4.21784      2.19481      6.30746        -0.016951      0.013230      0.326642
Li	     10.45836      8.48377     10.44762        -0.057455      0.229933     -0.099957
Li	      2.24373      4.15786      6.32361         0.064650     -0.042747      0.160742
Li	      4.30261      6.17931      6.26886        -0.021224      0.036044      0.156012
Li	      4.27436      4.18326      8.33222         0.045526     -0.084807      0.027334
Sc	      2.22033      6.22442      8.38677         0.124275     -0.509526      0.105845
Sc	      4.27071      8.39518      8.37852         0.470446     -0.163185     -0.284335
Sc	      8.49786      6.43801     10.43906        -0.781991      0.101856     -0.595559
V	     10.40301      4.29577      6.21506        -0.749157     -0.061117      0.720410
V	      2.08933      2.23249      4.24293         0.032258      0.143769      0.654702
Cr	      6.28919      4.19497      6.29754        -0.010307     -0.040900      0.403227
Co	      6.32483      6.29694      8.28896        -0.342705      0.395595      0.396154
Ni	      8.39058      2.16856      6.23122         0.025837     -0.149841     -0.071883
Ni	      4.21390      4.22928      4.25535         0.113567      0.034502     -0.316199
O	      2.12934      2.04442      2.23197        -0.095744      0.068263      0.449711
O	      4.28525      4.21814      1.96305         0.167303     -0.045447      0.714854
O	      4.04751      2.17204      4.16735        -0.956666     -0.012449      0.248376
O	      6.30762      4.36583      4.20623         0.014016      0.111050      0.092137
O	      6.33200      2.11189      6.30558        -0.095018      0.105902     -0.072361
O	      8.46529      4.21640      6.28308         0.696535      0.346613     -0.112885
O	      2.08901      4.06746      4.22845         0.107701     -0.385520      0.160095
O	      4.28894      6.30272      4.18293         0.921856      0.086143     -0.035518
O	      4.32251      4.19937      6.23806        -0.007848      0.006399     -0.072121
O	      6.31070      6.22510      6.25670         0.011710      0.082605     -1.915985
O	      6.31621      4.38039      8.25300        -0.031896     -0.587405     -0.175223
O	      8.18972      6.29249      8.43657         0.855492      0.067038      0.192131
O	      2.00127      6.34260      6.32274        -0.342901     -0.137414     -0.153716
O	      4.13809      8.61383      6.33470         0.263910     -0.151609     -0.220910
O	      4.30647      6.33449      8.34927        -0.596559      0.086502     -0.010129
O	      6.32253      8.36277      8.39093        -0.124367      0.406849     -0.035406
O	      6.33935      6.34733     10.65139         0.234502      0.069724     -0.423010
O	      8.44418      8.40421     10.50415         0.022248     -0.019502      0.095501
