# total energy = -236.38932038 eV
 
CRYSTAL
PRIMVEC
-0.023459 6.138043 6.419646 
6.527346 -0.045277 6.439498 
4.349547 4.101256 -0.027535 
PRIMCOORD
36 1
Li	     10.76764      4.12094      6.55913         0.026867      0.032526      0.027842
Li	      8.49864      2.09990      6.59530        -0.068312     -0.056134      0.016382
Li	      6.43094      4.09630      2.24277        -0.040997      0.045580      0.020694
Li	      4.37058      2.14829      2.23218         0.032777     -0.002829      0.008707
Li	      6.45291      2.16646      4.17602        -0.026411     -0.016599      0.082136
Li	      2.32801      4.01422      1.96751         0.019087     -0.018798     -0.007476
Li	      4.56949      4.04287      4.09882         0.046178      0.046257     -0.055027
Li	      6.73853      3.93622      6.24871        -0.015079      0.000029     -0.008929
Li	      8.61114      8.18470      8.55839        -0.015149     -0.020067      0.006895
Sc	      4.50685      1.96447      6.33468        -0.007349      0.012443     -0.015191
Sc	      4.32935      8.16122      4.24907         0.068251     -0.029823     -0.104989
Sc	      6.47448      6.11187      8.53596         0.076310     -0.134545      0.014686
V	      8.66360      6.14317     10.67288         0.012836     -0.093910      0.010481
V	      4.26423      6.07358      6.51016         0.013607     -0.003125     -0.010014
Cr	      6.49029      8.22066      6.46626        -0.011939     -0.014188     -0.078194
Co	      0.08377      2.01167      2.05999         0.132326      0.070044     -0.204713
Co	      2.26863      1.94139      4.16303        -0.019824      0.002142     -0.009491
Ni	      8.58673      4.06978      4.28984         0.150824     -0.130835     -0.098076
O	      2.00277      2.07923      2.23317        -0.097290      0.158232     -0.023869
O	      4.37438      4.30043      2.10739        -0.094047     -0.274421      0.058013
O	      4.36472      2.02179      4.29907        -0.019753      0.110484     -0.019228
O	      6.60649      4.09089      4.26585        -0.156778      0.022548     -0.035931
O	      6.45877      2.02931      6.47482        -0.010399      0.014178      0.001705
O	      8.73246      4.06362      6.32684         0.060976      0.096792      0.124454
O	      2.06730      4.23100      4.43709         0.016294      0.026140      0.082429
O	      4.14349      6.10517      4.41145         0.009058     -0.035616      0.098565
O	      4.19800      4.20344      6.43111        -0.042074     -0.038538      0.064719
O	      6.43746      6.18056      6.41560        -0.003569      0.007704     -0.004828
O	      6.46290      3.94021      8.65905        -0.024400      0.109303      0.157165
O	      8.65090      6.06899      8.67657         0.054525      0.001008     -0.057320
O	      2.29961      6.12012      6.32629        -0.038496      0.008844      0.016535
O	      4.46382      7.99607      6.39369         0.001702      0.011594      0.020432
O	      4.38898      6.09586      8.45825         0.012873      0.010477     -0.028048
O	      6.52002      8.13467      8.42588        -0.032707      0.058138      0.013848
O	      6.62190      6.07348     10.64024         0.006875      0.027880     -0.029286
O	      8.72670      7.98762     10.72569        -0.016793     -0.002913     -0.035080
