# total energy = -231.96531735 eV
 
CRYSTAL
PRIMVEC
-0.016412 6.386801 6.397723 
6.394675 0.014044 6.366375 
4.244033 4.218533 0.030129 
PRIMCOORD
36 1
Li	      8.44262     10.55751     10.57952        -0.006500     -0.029173     -0.046079
Li	      6.43622      8.55914     10.50026         0.030125      0.026411      0.005112
Li	      4.26476      4.21998      4.23684         0.016895      0.028297      0.055385
Li	      6.42697      4.26906      6.42173        -0.015410     -0.012558     -0.013360
Li	      8.47484      6.38409     10.63668         0.044334     -0.020369     -0.021017
Li	      2.20176      4.26056      6.43105         0.037537      0.001251      0.018003
Li	      4.15734      6.34821      6.56979        -0.022361     -0.036303     -0.041249
Li	      8.35950      8.57645      8.59297        -0.039809     -0.013984      0.008382
Li	      6.32552      6.50670      8.51605         0.024134      0.074874      0.015887
Sc	      6.40571      6.41987     12.67380         0.108155      0.042300     -0.020400
Sc	      6.39832      6.27474      4.33660        -0.039014     -0.048572      0.044595
Sc	      6.34132      4.30541     10.60972        -0.073474     -0.081680     -0.058744
V	     10.55125      6.36354      8.56510        -0.132059      0.033439     -0.012070
V	      4.23258      2.31070      6.31118        -0.023189      0.098552      0.139970
Cr	      8.49796      2.15812      6.36615        -0.001211     -0.061358     -0.121867
Cu	      6.45756     10.52657      8.58461        -0.052036      0.100518     -0.104082
Ni	      4.34781      8.41146      8.57419        -0.047385      0.042915      0.039033
Ni	      2.10506      4.25190      2.17351        -0.010407      0.069721      0.029819
O	      6.31861      8.58600      8.49025         0.038620     -0.178834     -0.004310
O	      2.06018      2.14495      2.08627         0.025917     -0.064035     -0.017785
O	      4.22794      4.37878      2.14286         0.108676      0.029595     -0.051743
O	      4.23896      2.11200      4.35127        -0.002440     -0.019994     -0.008197
O	      6.37074      4.24808      4.12835        -0.037585     -0.005935      0.234225
O	      6.37713      2.13421      6.48945         0.067445     -0.042084      0.006354
O	      8.55933      4.25143      6.47979        -0.029407      0.031596     -0.075686
O	      2.04602      4.17374      4.21547         0.052724     -0.011300      0.099334
O	      4.24198      6.35405      4.14145        -0.008809     -0.013641      0.102123
O	      4.30057      4.05499      6.38486        -0.007298      0.026658     -0.012855
O	      6.55843      6.31078      6.39070        -0.022264      0.013522      0.015333
O	      6.39681      4.01314      8.50190        -0.026275     -0.009232      0.104926
O	      8.62230      6.30996      8.38742        -0.017578      0.071551     -0.020546
O	      2.09232      6.51912      6.52786        -0.065647     -0.000943     -0.114472
O	      4.10959      8.53360      6.44072         0.017557     -0.011597     -0.052334
O	      4.18048      6.41985      8.52037         0.146544     -0.069816     -0.004774
O	      6.42691      6.32893     10.67418        -0.032866      0.013414     -0.079122
O	      8.52446      8.48214     10.80642        -0.005639      0.026795     -0.037791
