# total energy = -232.93120550 eV
 
CRYSTAL
PRIMVEC
0.048346 6.276362 6.432138 
6.416392 -0.005740 6.487042 
4.262777 4.205789 0.010857 
PRIMCOORD
36 1
Li	      4.30383      4.17447      0.18444         0.044597     -0.013842     -0.033188
Li	      2.24383      8.29792      6.57862         0.043217     -0.053020     -0.119726
Li	      4.07817      2.12289      2.01458         0.043494     -0.058710     -0.109078
Li	      6.56649      8.35791     10.70132         0.068281     -0.076096     -0.049033
Li	      0.14797      2.03866      2.10824        -0.088756      0.061459      0.012386
Li	      2.20560      2.03914      4.16056         0.010244      0.012362      0.054742
Li	      6.43929      4.24993      6.52981        -0.015488      0.084502      0.010063
Li	      4.24385      6.38046      6.51192         0.033205      0.018283     -0.032091
Li	      8.57490      8.40010      8.65520         0.003287     -0.043181      0.065805
Sc	      4.36566      4.19950      4.17244        -0.022858      0.105205      0.424403
Sc	      4.24487      8.31793      4.33065        -0.083506     -0.029464      0.019657
Sc	      6.38351      8.45166      6.53665         0.035262     -0.126021     -0.166609
V	      4.49628      2.07386      6.49568        -0.073276      0.072741     -0.149962
V	      6.37223      6.28567      8.57069         0.101140     -0.005346      0.001060
Cr	      8.49564      4.20550      4.32958        -0.035237     -0.029819      0.089093
Cu	      2.14714      0.15062      2.14414        -0.051375     -0.150393      0.071889
Cu	      8.52731      6.35731     10.85951        -0.043251      0.077960      0.101346
Ni	      2.16511      4.12956      2.08356        -0.156385      0.139384      0.095340
O	      2.10215      2.16030      2.17017         0.119019     -0.020793     -0.108080
O	      4.19184      4.14011      2.20102         0.005459     -0.063475     -0.282548
O	      4.25301      2.03231      4.54090        -0.039119      0.057487     -0.093373
O	      6.47166      4.20423      4.17855        -0.036977      0.014998      0.023020
O	      6.22066      2.10086      6.50653         0.203002     -0.012000      0.040526
O	      8.51657      4.38501      6.37599        -0.013932     -0.097144      0.021713
O	      2.15779      4.29598      4.33115         0.011999     -0.392239     -0.037212
O	      4.14291      6.26571      4.30301         0.452892     -0.090882     -0.051012
O	      4.28033      3.95849      6.37471         0.001394      0.051138     -0.046000
O	      6.46137      6.30877      6.61447        -0.097077     -0.040770     -0.016746
O	      6.49966      4.36225      8.64947         0.075222     -0.113422     -0.061458
O	      8.48410      6.22717      8.34706        -0.021335     -0.022288      0.018236
O	      2.21076      6.27300      6.64588        -0.015189      0.164463      0.127808
O	      4.36750      8.39506      6.36829        -0.055110      0.048082      0.156113
O	      4.45009      6.24296      8.73798         0.011313      0.064995      0.084017
O	      6.50335      8.15107      8.60035         0.032933      0.087535      0.029635
O	      6.43420      6.26792     10.63687        -0.477057     -0.023481     -0.092254
O	      8.59587      8.40913     10.78984         0.029966      0.401792      0.001518
