# total energy = -231.90268210 eV
 
CRYSTAL
PRIMVEC
-0.012090 6.411341 6.479702 
6.229891 0.027784 6.438267 
4.173169 4.267292 -0.001084 
PRIMCOORD
36 1
Li	     10.27145      4.30547      6.33730         0.079975     -0.020291     -0.016803
Li	      8.31449      2.27152      6.32569         0.022288     -0.010132      0.083934
Li	      8.33746      4.15499      4.47957        -0.009434      0.109395     -0.039304
Li	      8.31264      4.28208      8.46619        -0.002598      0.005899      0.062197
Li	      2.14023      2.13646      4.21859         0.010787      0.031014     -0.090588
Li	      6.38485      4.30787      6.33222        -0.113654      0.019766     -0.019906
Li	      8.25083      6.58154     10.83713         0.008485     -0.086605      0.033342
Li	      4.12139      6.46883      6.45304         0.003986     -0.006152     -0.021024
Li	      8.31573      8.51235      8.88634        -0.022726     -0.031339     -0.012014
Sc	      2.16945      6.44380      8.55927        -0.041176     -0.047272     -0.059262
Sc	      6.13560      2.24749      8.49820        -0.030332      0.081779      0.270191
Sc	      2.01828      4.26674      6.37527        -0.000041     -0.010441     -0.128490
V	      6.28901      6.36996      8.70418        -0.015235     -0.015789      0.009856
V	      4.20997      4.36626      4.39691        -0.303575      0.046650     -0.054578
Cr	      4.13475      2.20020      2.10151        -0.105480      0.055737     -0.109613
Cu	      6.28338      2.13030      4.43086         0.048435     -0.042813     -0.187741
Cu	      8.31996      6.25089      6.44225        -0.027934      0.252829      0.047888
Cu	     10.19662      8.57954     10.83086         0.079499     -0.017240     -0.023887
O	      8.30965      4.35852      6.42680        -0.024663     -0.166898      0.010218
O	      8.18618      8.58148     10.81496        -0.102669     -0.052662      0.238330
O	      2.10952      2.10081      2.13504         0.026349      0.044145     -0.038679
O	      4.20905      4.27532      2.26305        -0.048054     -0.022269     -0.086913
O	      4.29947      2.35502      4.07854        -0.061165     -0.125703     -0.106899
O	      6.08458      4.33802      4.24343         0.361360     -0.151707      0.000421
O	      6.12979      2.15708      6.49669         0.063784      0.011440     -0.006007
O	      2.33390      4.17190      4.33464         0.000517     -0.069049     -0.043892
O	      4.18721      6.18706      4.25593         0.053795     -0.116002     -0.046671
O	      4.18565      4.18626      6.18949         0.112229     -0.073149      0.121321
O	      6.29070      6.40907      6.75439         0.014358     -0.136770     -0.062608
O	      6.18127      4.34334      8.82238        -0.034693     -0.022854     -0.097361
O	      8.25153      6.46531      8.72686         0.029232      0.009057      0.157798
O	      2.09853      6.26895      6.55012        -0.008853      0.098608     -0.064801
O	      4.15565      8.51753      6.40584        -0.075671      0.004683      0.190622
O	      4.22527      6.57719      8.60767         0.057627     -0.009362     -0.002171
O	      6.18054      8.51311      8.53001         0.052333      0.014927     -0.144785
O	      6.21331      6.42758     10.54757         0.002914      0.448571      0.237877
