# total energy = -233.23923965 eV
 
CRYSTAL
PRIMVEC
0.018611 6.304291 6.415988 
6.282017 0.001908 6.432603 
4.182763 4.208684 0.006569 
PRIMCOORD
36 1
Li	      2.09449      2.11364      0.08709         0.002993      0.002859      0.009761
Li	      6.24459      8.45115     10.58478        -0.006265      0.000632     -0.041249
Li	      2.01903      4.12086      2.25296         0.037713     -0.004737      0.074256
Li	      2.12649      2.09677      4.24434        -0.016597     -0.011864      0.039239
Li	      8.30259      6.33739      6.39311        -0.007933     -0.020396     -0.076865
Li	      6.34523      4.21639     10.51997         0.051494      0.048021     -0.072259
Li	      6.33611      8.31868      6.54947         0.016817     -0.012957      0.038695
Li	      8.31734      8.40921      8.59067        -0.025950      0.013624     -0.010796
Li	      6.30716      6.34283      8.52879         0.037282     -0.012878     -0.014819
Sc	     10.43317      4.24487      6.46885         0.006780     -0.050551     -0.038658
Sc	      6.35730      4.17031      6.53492        -0.018247      0.031017     -0.016714
Sc	      4.23987      6.37816      6.45870         0.041033      0.021160     -0.005598
V	      4.12937      4.14471      4.32641         0.040135     -0.036430      0.039657
V	      8.32156      6.48789     10.60367        -0.045521      0.064641      0.156495
Cr	      4.19069      2.10157      2.17077        -0.021155     -0.049248     -0.012960
Ni	      6.28111      4.18442      2.19916         0.015106     -0.033664     -0.074270
Ni	      4.14809      0.03360      4.23025         0.026768     -0.104115     -0.002580
Ni	      0.09701      2.15964      2.16189         0.008990     -0.136983      0.039767
O	      2.14531      2.01516      2.16527        -0.026199      0.198575     -0.007082
O	      4.19075      4.16304      2.21192        -0.108726      0.034041     -0.063214
O	      4.16463      2.18311      4.19228         0.011107      0.017040      0.016822
O	      6.12160      4.20141      4.28953        -0.047550      0.029281      0.086432
O	      6.26750      2.07042      6.52806        -0.030549     -0.024345     -0.069563
O	      8.39855      4.20050      6.21966         0.029901     -0.015651      0.167415
O	      2.31187      4.32326      4.25925        -0.127779     -0.031253      0.028395
O	      4.07658      6.25369      4.30354        -0.002549      0.054549      0.075331
O	      4.22190      4.21506      6.28506         0.012831     -0.002481      0.025598
O	      6.24351      6.25527      6.43348         0.003886      0.016019      0.002748
O	      6.32885      4.17027      8.54522        -0.024291      0.094715     -0.008293
O	      8.42624      6.30378      8.84516        -0.026905      0.014320     -0.050583
O	      2.10857      6.30580      6.21510        -0.002536      0.039470     -0.055182
O	      4.19540      8.42649      6.54818         0.005363     -0.017008      0.014260
O	      4.17475      6.37208      8.62317         0.123935     -0.045916     -0.170149
O	      6.20613      8.47146      8.57334         0.052618     -0.111152     -0.015443
O	      6.48459      6.26574     10.73854        -0.026658      0.036215      0.009823
O	      8.39725      8.25505     10.68160         0.040657      0.005451     -0.018415
