# total energy = -235.08088970 eV
 
CRYSTAL
PRIMVEC
0.045423 6.361227 6.325710 
6.292934 0.035241 6.335637 
4.224767 4.276305 -0.005376 
PRIMCOORD
36 1
Li	      6.33762      4.26176      2.15437         0.023222      0.025434     -0.036955
Li	      4.29091      6.36018     10.49890         0.019740      0.010719      0.050192
Li	      6.36535      8.52314     10.46927         0.032653      0.031100      0.072458
Li	      2.12705      4.28871      2.16809         0.047456     -0.029918     -0.032378
Li	      6.29457      4.28605      6.29721        -0.044340      0.003268     -0.005751
Li	      6.37208      4.39162     10.42829         0.017737     -0.030886      0.015843
Li	      8.36361      6.32561     10.51646         0.028669     -0.020208      0.038753
Li	      2.17364      4.29636      6.28270         0.005230      0.041561     -0.037788
Li	      6.36203      6.36774      8.64985         0.035371     -0.041232      0.008684
Sc	      6.39809      6.36446     12.51835         0.098875      0.045554      0.092331
Sc	      8.36287      2.22997      6.24499         0.012043     -0.143261     -0.029497
Sc	      2.08072      2.13385      4.12563        -0.051134     -0.009255      0.129763
V	      8.33552      6.40973      6.39078         0.087729     -0.069720      0.019947
V	      8.44331      8.59197      8.54174        -0.007803      0.086244     -0.034458
Fe	      4.45647      8.45157      8.44777        -0.035145      0.133745     -0.035178
Fe	      4.22050      4.29472      4.18657        -0.011142     -0.086232      0.094012
Co	      4.16417      6.36765      6.34798         0.257880      0.101756      0.017717
Ni	     10.49611      6.42548      8.46730         0.047087     -0.005732     -0.033350
O	      2.13472      2.16176      2.06308         0.047637     -0.005350      0.075676
O	      4.25810      4.16827      2.15430        -0.014863     -0.041316      0.009603
O	      4.22809      2.17578      4.24416        -0.023836     -0.031836     -0.075622
O	      6.18650      4.34806      4.25154         0.061657      0.021859     -0.031656
O	      6.20034      2.12131      6.39920        -0.036448      0.020920     -0.097654
O	      8.44224      4.38775      6.37368        -0.011238      0.037187      0.006748
O	      2.22415      4.20583      4.21395        -0.021008     -0.011389     -0.027432
O	      4.23184      6.33373      4.22813        -0.153067      0.038545      0.425183
O	      4.20391      4.15942      6.39267         0.029294      0.040651     -0.034850
O	      6.53536      6.38173      6.28767        -0.108613      0.014350      0.029201
O	      6.04965      4.20886      8.44936        -0.045806      0.099763     -0.012565
O	      8.44270      6.51944      8.33128        -0.129862      0.021343     -0.005188
O	      2.14479      6.48635      6.31318        -0.016347     -0.010416      0.025386
O	      4.24523      8.50933      6.45319        -0.027005     -0.145445      0.014267
O	      4.27959      6.38372      8.40413        -0.135702     -0.103243     -0.513697
O	      6.45957      8.52456      8.43376         0.025288     -0.018959      0.013247
O	      6.34980      6.35312     10.59227        -0.026616      0.039764     -0.034225
O	      8.39390      8.60389     10.48535         0.022407     -0.009369     -0.060766
