# total energy = -237.80492013 eV
 
CRYSTAL
PRIMVEC
0.056513 6.432102 6.196737 
6.345474 0.030655 6.223628 
4.250463 4.326113 -0.000531 
PRIMCOORD
36 1
Li	      6.29352      0.12156      6.23499        -0.305882     -0.065096     -0.117616
Li	      6.30634      4.21800      2.22663         0.049540     -0.176581      0.127035
Li	      4.46224      8.64184      8.32643         0.033955      0.045512      0.091477
Li	      6.32667      8.60102     10.15752         0.002265      0.042288      0.133198
Li	      8.49439      4.40844      8.35149         0.148844      0.104783     -0.270640
Li	      4.26021      4.29753      4.07837         0.100358     -0.154303      0.019130
Li	      4.34657      2.12697      6.22347        -0.125761     -0.171787     -0.175687
Li	      8.45645      8.57327      8.37749        -0.127831      0.166064     -0.024940
Li	      6.42275      6.57240      8.36567        -0.057265      0.102747     -0.106043
Sc	      2.10505      2.17429      0.08442         0.220567      0.976586     -1.354330
Sc	      6.42699      8.61602      6.30429         0.260549     -0.164540      0.141824
Sc	      4.30385      6.43805      6.38401         0.213985     -0.249550      0.007936
V	      4.23333      6.38231      2.10931        -0.647688     -1.249208     -0.781510
V	      6.32675      4.29838      6.25815         0.613119      0.313508     -0.833168
Fe	      2.23336      2.18481      4.02488         0.556916     -0.454623      0.648534
Fe	      8.35454      6.48637     10.28004        -0.189976      0.287294     -0.022685
Co	      4.28930      6.52310     10.22683        -0.033507     -0.408309      1.325621
Co	      6.38728      4.30439     10.25119        -0.454718      0.670707      0.117069
O	      1.99154      2.18566      2.08550         0.359295     -0.033907      0.566625
O	      4.26202      4.54458      2.07083         0.091292      0.740843     -0.017264
O	      4.19166      2.05571      4.09869        -0.299584     -0.304384     -0.188515
O	      6.46750      4.42260      4.22776         0.412201      0.408302     -0.666851
O	      6.36392      2.22692      6.33023         0.031580     -0.187795      0.019337
O	      8.39250      4.32422      6.09435         0.077877     -0.344355     -0.408550
O	      2.12406      4.29211      4.14257         0.124253     -0.119029     -0.258658
O	      4.26997      6.49021      4.06679         0.101420     -0.020333      0.599811
O	      4.33788      4.33465      6.15621        -0.567112      0.235696      0.025447
O	      6.35822      6.46075      6.12924        -0.044971      0.325831     -0.018261
O	      6.39970      4.13353      8.17685         0.028734     -0.099255      0.961684
O	      8.61889      6.48168      8.38007        -0.158319      0.051336     -0.102291
O	      2.21874      6.45477      6.06171        -0.043748     -0.044320      0.266868
O	      4.29302      8.56584      6.21513        -0.031558     -0.285780      0.108338
O	      4.30381      6.42847      8.34851        -0.076337      0.200348      0.073877
O	      6.41573      8.64867      8.21866         0.014185     -0.026516      0.196855
O	      6.39170      6.42744     10.33518        -0.350223     -0.034988     -0.068435
O	      8.53385      8.62071     10.37745         0.073544     -0.077186     -0.015222
