# total energy = -237.62261957 eV
 
CRYSTAL
PRIMVEC
0.001697 6.438616 6.310475 
6.313025 0.017088 6.295186 
4.214101 4.287420 0.005825 
PRIMCOORD
36 1
Li	      4.27763     10.65453      6.33307        -0.005351      0.014805      0.036207
Li	      4.25548      8.59944      8.29372         0.021733      0.024873      0.035241
Li	      4.11745      4.45851      4.27861         0.021544      0.033098     -0.053736
Li	      4.20122      2.30836      6.33217        -0.024734      0.052904      0.015498
Li	      6.18770      4.23718      6.35423        -0.092312      0.022058     -0.075137
Li	      4.23667      8.52366      4.26303         0.001709     -0.012834     -0.011982
Li	      2.23744      6.34624      4.23513        -0.018897      0.003490     -0.062827
Li	      4.14784      6.41024      6.24801         0.040288     -0.015482     -0.019887
Li	      4.20797      4.30254      8.25960        -0.037797      0.004478     -0.009113
Sc	      6.27999      2.18310      4.28748        -0.079864      0.030208      0.005112
Sc	      6.23791      6.45454      4.25458         0.020302     -0.036681      0.117459
Sc	      6.30028      6.39028      8.33641         0.094186      0.062170     -0.037277
V	      8.46223     10.71936     10.56127        -0.068016      0.037989      0.029966
V	      2.16078      4.28910      2.05420         0.177157      0.131406      0.058713
Fe	      2.29166      8.50823      6.34418        -0.124179     -0.074750     -0.067206
Fe	     10.43288      6.45554      8.36428         0.039179      0.031062      0.009797
Fe	      2.17546      4.40087      6.28118        -0.197587     -0.019254     -0.021496
Ni	      6.30684     10.68818      8.38655        -0.056101      0.017525      0.087817
O	      2.09275      2.15089      2.07174        -0.014392     -0.050598      0.003593
O	      4.17575      4.38021      2.11984        -0.108088      0.075813     -0.005646
O	      4.18844      1.90372      4.28963         0.060085     -0.042069     -0.039487
O	      6.39751      4.29481      4.18214         0.080695     -0.029685      0.126898
O	      6.39270      2.18152      6.34254         0.079382      0.016979     -0.133947
O	      8.47581      4.18070      6.31674        -0.042001     -0.071311     -0.097335
O	      2.11652      4.25247      4.15045        -0.053343     -0.025701      0.013228
O	      4.22985      6.45463      4.04850         0.118991      0.069612      0.126496
O	      4.07932      4.32580      6.27368         0.099162      0.030519     -0.011605
O	      6.25600      6.57506      6.29401         0.036194     -0.054631      0.055127
O	      6.44243      4.29616      8.35629        -0.222314     -0.047890      0.023116
O	      8.43265      6.41102      8.38364        -0.031017     -0.072440     -0.009261
O	      2.10938      6.45552      6.33478         0.017728      0.047252     -0.142938
O	      4.21934      8.56730      6.30783         0.153950      0.003193     -0.008574
O	      4.20352      6.38004      8.59919         0.110370      0.044758      0.052742
O	      6.29154      8.57925      8.41436         0.002705     -0.130264      0.061796
O	      6.20540      6.53961     10.46638         0.004786     -0.027658      0.008239
O	      8.39098      8.79182     10.62664        -0.004151     -0.042942     -0.059589
