# total energy = -45.79183563 eV
 
CRYSTAL
PRIMVEC
-0.025908 2.226576 2.031779 
2.031369 -2.226984 -0.025911 
6.106499 4.382955 -6.109342 
PRIMCOORD
8 1
Li	      2.02668      2.31440     -0.01946        -0.001882     -0.013366      0.001284
Li	      6.08475      2.06635     -4.08022        -0.000650      0.010463      0.001218
Mn	      6.10547      4.38116     -6.10770         0.014329      0.003881     -0.003560
Ni	      4.05550      2.19024     -2.04960        -0.003795     -0.001680      0.005801
O	      6.16204      4.34125     -4.15793        -0.004918     -0.012404      0.000746
O	      3.93572      4.38578     -1.92954         0.139824      0.044702     -0.142283
O	      1.94903      0.03752      0.05787        -0.006571      0.011191      0.002156
O	      4.17505     -0.00583     -2.16916        -0.136337     -0.042787      0.134637
