# total energy = -91.07672841 eV
 
CRYSTAL
PRIMVEC
0.000196 2.096487 2.098411 
6.047273 0.047411 -2.143266 
-2.026951 6.561114 -4.459927 
PRIMCOORD
16 1
Li	      2.04552      2.39579     -0.29596         0.006993      0.064834     -0.063955
Li	      3.90345      2.31647     -2.31091        -0.027246      0.019224     -0.017281
Li	      0.02776      4.25478     -0.04738         0.021002     -0.015774      0.015835
Li	      2.07457      4.16739     -2.06095        -0.018330     -0.062985      0.053130
Mn	      6.00542      2.16918     -0.07379        -0.032148      0.035255     -0.033015
Mn	      0.04948      6.47692     -2.27965         0.067192     -0.015681      0.019597
Ni	      3.97156      4.26965     -4.26427         0.012713      0.040616     -0.040725
Ni	      1.97692      6.59549     -4.49647        -0.041829      0.020278     -0.018655
O	     -0.01847      4.55045     -2.45095         0.068754      0.058341     -0.058554
O	      0.03427      1.93421      0.15810         0.014752     -0.044532      0.052285
O	      4.08833      6.61406     -4.51074         0.089538      0.051310     -0.054835
O	      4.09856      4.42383     -2.32152         0.024230     -0.109594      0.108175
O	     -0.07100      6.38146     -4.28149        -0.115976     -0.043007      0.036909
O	      4.14232      2.06737      0.02816         0.101201      0.091834     -0.085368
O	      1.93391      6.62208     -2.42640        -0.157738     -0.076288      0.075052
O	      1.93542      2.20035     -2.19580        -0.013107     -0.013831      0.011407
