# total energy = -139.59808343 eV
 
CRYSTAL
PRIMVEC
2.084044 -2.098636 4.173177 
0.001245 4.124902 4.136193 
-6.214631 -2.087709 4.159662 
PRIMCOORD
24 1
Li	     -3.12808      0.96642      5.17272         0.001965      0.008868     -0.001584
Li	     -3.14303     -1.05809      3.22666        -0.005950      0.004726      0.011837
Li	     -1.09544      0.94055      3.16800         0.007572      0.006320      0.005830
Li	     -1.08776      3.03433      5.24264         0.013949     -0.003949     -0.001736
Li	     -5.06509     -0.96661      5.10490        -0.017321     -0.002662      0.002478
Li	     -5.07479      1.08511      7.18436         0.009242     -0.006397     -0.008160
Mn	      1.06092      0.99782      5.19811         0.001706     -0.001377      0.007646
Mn	      1.06086     -1.05198      3.13195         0.007752     -0.004599      0.007145
Mn	     -1.05478      0.98275      7.28736         0.002955     -0.009673      0.010137
Ni	     -1.07765     -1.07547      5.21491         0.043043      0.009150     -0.011597
Ni	     -3.08144      1.02137      9.33776        -0.006277     -0.038829     -0.012128
Ni	     -3.08577     -1.06043      7.24636        -0.014470      0.008777      0.052514
O	     -3.25120     -3.14364      7.27632        -0.057110     -0.100511      0.102649
O	     -3.26087     -1.06167      9.34802        -0.047817     -0.092523      0.077106
O	     -1.01333      1.00362      9.18681         0.119269     -0.112810     -0.056209
O	     -1.00562     -0.92704      7.27140         0.114251      0.036203      0.103226
O	      0.96979      1.09788      7.17734         0.001939      0.009832     -0.014679
O	      1.04122     -0.95045      5.07853         0.084725      0.017847     -0.033131
O	     -2.94604      1.01389      7.25623         0.036127      0.108437     -0.100806
O	     -3.09600     -1.07682      5.22383        -0.148315      0.127858     -0.122080
O	     -0.89246      0.99199      5.30820         0.020496      0.106432      0.013109
O	     -0.90487     -1.15581      3.13280         0.028873     -0.012989     -0.105072
O	     -5.20952     -1.19734      7.41914        -0.094522     -0.027090      0.036561
O	     -5.17850      0.85882      9.47082        -0.102083     -0.031040      0.036944
