# total energy = -239.28260674 eV
 
CRYSTAL
PRIMVEC
0.010300 6.471283 6.448050 
6.358887 0.087334 6.372351 
4.290230 4.315111 0.006235 
PRIMCOORD
36 1
Li	      0.12372      6.39503      6.36688         0.024436     -0.085443     -0.080368
Li	      2.12076      6.53967      8.51888         0.058206      0.010108      0.016574
Li	      2.16850      4.28254      2.43085        -0.039390      0.026215     -0.022571
Li	      2.06548      2.45359      4.29237         0.015918     -0.024025      0.076781
Li	      3.98017      4.41857      4.30916         0.049656      0.017765      0.060717
Li	      0.22182      4.23578      4.35983        -0.051164      0.008655      0.053896
Li	      2.23053      6.21899      4.45317        -0.041596     -0.012431     -0.022865
Li	      2.08843      4.44054      6.19273        -0.051074      0.012211      0.080354
Li	      4.15769      6.54232      6.21033         0.035640      0.001219     -0.038464
Sc	      6.36357      4.41822      6.28558        -0.044208      0.114544     -0.067422
Sc	      8.44842      8.74325      8.57684        -0.080972     -0.007074     -0.063003
Sc	      6.43665      6.47979      8.61201         0.015322      0.050004     -0.052185
V	      4.21226      2.39589      2.08981         0.029430     -0.303897      0.021533
V	      4.24183      2.21980      6.35446         0.021975      0.126148      0.005317
Fe	      2.19981      8.41598      6.40842         0.012640      0.186631     -0.003051
Fe	      4.25755      0.07833      4.27682        -0.004111      0.032519     -0.133070
Fe	      6.39993      8.67514     10.70826        -0.051112     -0.013148     -0.001121
Fe	      4.37424      6.46420      2.32497        -0.008944      0.125546     -0.156771
O	      2.18388      2.19301      2.02199        -0.057544     -0.033032     -0.039253
O	      4.28537      4.16073      2.18952         0.035113      0.259617     -0.033575
O	      4.21891      2.11981      4.19671        -0.019445      0.010144     -0.082057
O	      6.53119      4.23719      4.27791        -0.050434      0.043985     -0.032389
O	      6.35484      2.25096      6.52704         0.118509     -0.044875      0.108689
O	      8.49893      4.48141      6.28747         0.015299     -0.034289      0.104798
O	      2.09411      4.34594      4.29747        -0.013505      0.012943     -0.006508
O	      4.32532      6.44462      4.14080        -0.007365     -0.019962      0.161583
O	      4.29737      4.26033      6.45101         0.023891     -0.026753      0.047855
O	      6.53148      6.45555      6.47355        -0.089062     -0.142628      0.039050
O	      6.28697      4.37228      8.47428         0.000960     -0.012289     -0.002488
O	      8.55513      6.61729      8.45415         0.072984      0.008949      0.076738
O	      2.15101      6.57145      6.42391        -0.054902     -0.167182      0.017776
O	      4.17987      8.61640      6.65215         0.025573      0.049478     -0.017240
O	      4.31102      6.55470      8.64354         0.021857     -0.066628     -0.021270
O	      6.31818      8.61755      8.52990        -0.007357     -0.019373     -0.038290
O	      6.29531      6.62161     10.65992         0.023352     -0.055297      0.010973
O	      8.56732      8.81012     10.72214         0.071427     -0.028356      0.031328
