# total energy = -223.26219205 eV
 
CRYSTAL
PRIMVEC
0.000101 6.177925 6.376397 
6.389813 -0.004762 6.381500 
4.270935 4.133389 -0.014239 
PRIMCOORD
36 1
Li	      8.47806      8.22231     12.70583        -0.009791     -0.091698     -0.092983
Li	      4.32093      8.19854      8.52838         0.032040      0.080528     -0.025579
Li	      6.36725      2.06484      4.23390        -0.016892     -0.056086      0.042346
Li	      6.44199      2.09361      8.44569        -0.020304     -0.027457     -0.045859
Li	      2.12671      2.09032      4.26940        -0.057025      0.035111      0.100091
Li	      8.47651      6.21699     10.69737        -0.008087     -0.004089      0.178780
Li	      6.28428      8.20652      6.48418         0.008400      0.086613     -0.049092
Li	      4.51620      6.22114      6.39572        -0.084913      0.077399     -0.068776
Li	      6.33581      6.26796      8.36852        -0.011520     -0.074559      0.057454
Sc	      2.16636      0.10556      2.08497        -0.148540     -0.365412     -0.392083
Sc	      4.21984      4.15634      4.23753        -0.076446      0.290923      0.130150
Sc	      8.45256      6.10660      6.36326         0.263906     -0.036627     -0.280256
Sc	      8.51305      8.21453      8.52525         0.112441      0.213803     -0.052593
Fe	      4.28047      8.19827      4.30075         0.110487      0.227065      0.407183
Co	      4.29054     10.28224      6.37246         0.058582     -0.128741      0.086003
Cu	      2.11284      4.08246      2.13993         0.279840      0.005780     -0.218145
Ni	      4.24055      0.02736      4.20786         0.162943     -0.042553      0.164342
Ni	      6.40297      4.07973      6.33580         0.078296     -0.196553      0.041961
O	      4.30800      8.38640      6.25438        -0.072851     -0.181869     -0.057940
O	      2.12633      2.12287      2.10952        -0.007662      0.602009      0.001839
O	      4.23398      4.13366      2.03903         0.025484     -0.003906     -0.077363
O	      4.26146      2.10039      4.27767        -0.027955     -0.019393     -0.046057
O	      6.36196      4.14074      4.24353        -0.020585      0.042922     -0.239786
O	      6.34058      1.89165      6.33049        -0.032706      0.352351     -0.012481
O	      8.64356      4.03891      6.39695        -0.271405     -0.014174      0.083474
O	      2.10348      4.15576      4.12307         0.019937     -0.005687      0.047001
O	      4.24369      6.35474      4.34142         0.074919     -0.587625     -0.125627
O	      4.33242      4.09010      6.34618        -0.115440     -0.041215      0.113826
O	      6.43934      6.09281      6.37844         0.090722      0.151867      0.029647
O	      6.47338      4.11512      8.56512        -0.308834     -0.005476      0.040872
O	      8.53541      6.15043      8.45737        -0.005392     -0.453315      0.129163
O	      1.85629      6.18095      6.38486         0.288640      0.010955      0.291076
O	      4.23184      6.18832      8.49845        -0.030785     -0.070852      0.029925
O	      6.49563      8.30432      8.50885         0.010697      0.065708      0.019315
O	      6.34398      6.00825     10.84555        -0.083618      0.232988     -0.045274
O	      8.67254      8.29394     10.58104        -0.206584     -0.068735     -0.164551
