# total energy = -223.96116915 eV
 
CRYSTAL
PRIMVEC
0.034561 6.366605 6.371993 
6.346797 0.008178 6.398516 
4.241215 4.271955 -0.004543 
PRIMCOORD
36 1
Li	      4.20424      2.16233      2.26952        -0.013694     -0.001914      0.088583
Li	     10.45136      6.47353      8.68810        -0.009894     -0.023539     -0.008515
Li	      2.16097      4.27351      2.32373         0.025822     -0.014314      0.040914
Li	      6.26353      6.48699      4.26022        -0.010472     -0.021842     -0.037282
Li	      4.13615      4.36430      4.22427         0.000987      0.075668     -0.041283
Li	      4.22746      2.20116      6.42844         0.002453      0.000693      0.000590
Li	      2.34561      6.26612      4.09284         0.006498     -0.052572     -0.044917
Li	      4.32902      6.30492      6.15538         0.043964     -0.029044     -0.079897
Li	      8.57438      8.39672      8.50142        -0.004047     -0.026617     -0.009345
Sc	     10.51367      4.33479      6.50188        -0.037075      0.071207      0.099570
Sc	      2.19324      8.48250      6.40557        -0.035847     -0.030147      0.106836
Sc	      6.35956      4.28923      2.21743         0.008757      0.042054      0.084504
Sc	      6.49640      6.34611      8.47374         0.001600      0.005579      0.001590
Fe	      2.27675      4.17342      6.28685        -0.123754      0.065757      0.078373
Co	      4.22778      0.04014      4.25314        -0.033859      0.097397     -0.003563
Cu	      6.36493      8.50883     10.60437        -0.034306      0.050157     -0.077796
Cu	      0.07092      4.14349      4.15807        -0.183417      0.230389      0.049718
Ni	      6.27140      4.27485      6.39061        -0.001505      0.045205     -0.023080
O	      4.32318      1.87469      4.28857        -0.076832     -0.130828      0.024179
O	      4.26246      6.48971      4.23650        -0.025301     -0.027813     -0.042140
O	      2.19254      2.06226      2.03050         0.007906     -0.018254     -0.069898
O	      4.28004      4.24151      2.10714         0.014987      0.014915     -0.046781
O	      6.50404      4.18578      4.31816         0.128588      0.148732     -0.077891
O	      6.37468      2.15629      6.23925         0.070517     -0.105015      0.045651
O	      8.42504      4.23998      6.20729         0.089368     -0.037132     -0.054024
O	      2.04911      4.24360      4.36137         0.088170      0.035469     -0.145564
O	      4.18902      4.27853      6.29736         0.073977      0.017441     -0.015215
O	      6.33913      6.43228      6.42382        -0.023597      0.065720      0.064301
O	      6.37955      4.25766      8.55030        -0.012552      0.013733     -0.005725
O	      8.45136      6.37123      8.54176        -0.051323     -0.003873     -0.003679
O	      2.08075      6.37393      6.43669         0.007173     -0.077906      0.012288
O	      4.28241      8.59644      6.20523         0.027119     -0.015472     -0.007493
O	      4.26986      6.37120      8.76824         0.010892     -0.008368      0.134104
O	      6.37099      8.51824      8.49041         0.013259     -0.044841     -0.010434
O	      6.21083      6.45500     10.64470        -0.040613     -0.288914     -0.004116
O	      8.49320      8.73125     10.63176         0.096049     -0.021712     -0.022563
