# total energy = -223.83036765 eV
 
CRYSTAL
PRIMVEC
-0.007743 6.298741 6.310508 
6.343046 0.016210 6.287030 
4.245295 4.199902 -0.005641 
PRIMCOORD
36 1
Li	      8.40550      2.23620      6.26812         0.025516     -0.011445     -0.043679
Li	      6.45310     10.37917      8.44789        -0.028055     -0.032943      0.025456
Li	      4.14078      2.03797      2.14293        -0.010175      0.038079      0.011669
Li	      6.43424      8.38836     10.48815        -0.006100     -0.016617     -0.024751
Li	      2.17748      2.05491      4.17661         0.005797      0.002421     -0.015780
Li	      8.40408      6.27705      6.36847        -0.000449      0.015369     -0.016727
Li	      2.13629      6.23504      4.14785         0.043169      0.006775      0.019775
Li	      8.32190      8.45391      8.46318        -0.040925     -0.010845      0.013601
Li	      6.43805      6.34818      8.44561        -0.010990      0.045490      0.014933
Sc	      6.30754      0.06672      6.20812         0.011417     -0.004397      0.021861
Sc	      6.35254      2.19958      8.42719         0.006960     -0.051953     -0.007843
Sc	      4.31755      4.00729      4.21895         0.053502      0.000343     -0.084171
Sc	      4.20706      6.32517      6.40603        -0.055002      0.031243      0.037832
Fe	      6.34645      8.33504      6.35176         0.035756      0.131513      0.056582
Co	      4.20021      6.33069     10.41114         0.015537     -0.038646     -0.106752
Ni	      2.11888      4.23806      2.16668         0.113519     -0.009303     -0.006311
Ni	      6.41641      4.19444      6.25878        -0.041175      0.075147     -0.003274
Ni	      6.29352      4.24784     10.47469         0.016232     -0.047495     -0.030132
O	      2.09189      2.34667      2.09598        -0.035847     -0.151767     -0.015120
O	      4.09342      4.23273      2.10338         0.056811      0.008969      0.037965
O	      4.24925      1.98860      4.16057        -0.014794     -0.078663     -0.026436
O	      6.42592      4.18185      4.17985         0.062063      0.021626     -0.043279
O	      6.38530      2.09839      6.33700         0.011844     -0.043595      0.006771
O	      8.43947      4.24996      6.05709         0.115091     -0.004083      0.009003
O	      2.14279      4.16797      4.36903         0.047888     -0.008326     -0.073701
O	      4.21670      6.25738      4.25117         0.000318     -0.061315     -0.018843
O	      4.28627      4.22161      6.29949        -0.070818     -0.011855     -0.065352
O	      6.30437      6.41659      6.31849         0.020475     -0.146924     -0.008015
O	      6.55640      4.26608      8.37822        -0.156414      0.018649     -0.003550
O	      8.50584      6.16318      8.43954         0.014342      0.136543     -0.000904
O	      2.07182      6.13210      6.29683         0.005407      0.073570     -0.012669
O	      4.24512      8.40249      6.24912        -0.024914     -0.011194      0.071683
O	      4.16795      6.33488      8.50018         0.007494     -0.026744      0.099740
O	      6.35498      8.39255      8.14385        -0.006883     -0.029515      0.185298
O	      6.15737      6.31740     10.46254        -0.070559      0.062056      0.028732
O	      8.50472      8.65756     10.42953        -0.096039      0.129832     -0.033613
