# total energy = -226.10138785 eV
 
CRYSTAL
PRIMVEC
0.030125 6.194149 6.286752 
6.547949 0.052263 6.261115 
4.404428 4.149428 -0.001971 
PRIMCOORD
36 1
Li	      8.74123      2.23339      6.32946         0.038336      0.034618     -0.243742
Li	      4.38681      8.29307      8.31297         0.045158     -0.004015     -0.060612
Li	      8.81657     10.30894     10.49955         0.086566     -0.134483      0.066668
Li	      6.48861      2.16559      4.22248         0.078830     -0.070414      0.055471
Li	      6.50853      2.17981      8.25362        -0.093299      0.130802      0.036834
Li	      8.68565      4.22270      8.26658        -0.158257      0.122868      0.046500
Li	      8.79169      6.30486     10.43068        -0.005071      0.084757     -0.081220
Li	      6.45135      8.36199      6.28426        -0.064848     -0.086050     -0.122011
Li	      8.84559      8.27301      8.42661         0.133871     -0.038693      0.174780
Sc	      2.18653      2.05551      4.10011        -0.206687      0.157073      0.583087
Sc	      4.30456      4.14183      4.04639        -0.044620      0.206387      0.161152
Sc	      4.23936      6.25400      6.36626         0.150919      0.385599     -0.551247
Sc	      6.60614      6.33224      8.42429         0.234095     -0.667875      0.222450
Fe	      0.27145      6.32361      6.29742        -0.337955     -0.333140     -0.443807
Co	      6.57411      4.11420      6.29196         0.159963     -0.085530      0.435920
Co	      6.52497      4.18509     10.41438         0.458917     -0.006918      0.193397
Cu	      6.69550     10.28504      8.40166        -0.032106     -0.070105      0.005546
Cu	      8.76217      6.23821      6.29960        -0.003956     -0.008366      0.040700
O	      6.71899      2.12372      6.23234         0.014388      0.154031      0.055496
O	      9.14756      8.32233     10.43248        -0.615933     -0.099388      0.049918
O	      2.29663      1.90052      2.12776         0.049965     -0.432136     -0.338705
O	      4.44404      4.11446      1.99620         0.143112     -0.036400      0.064917
O	      4.28728      2.09859      4.38640        -0.042318     -0.007466     -0.216741
O	      6.45736      4.11885      4.38163        -0.067695      0.186115     -0.572305
O	      8.49750      4.33489      6.28421        -0.083084      0.026668     -0.030131
O	      2.21166      4.11172      4.17109         0.286430     -0.130130     -0.085572
O	      4.42445      6.26667      4.18390         0.128560     -0.242691      0.040739
O	      4.58679      4.05352      6.24923         0.011373     -0.014665      0.028546
O	      6.36374      6.07024      6.30526        -0.097895     -0.032047      0.023724
O	      6.64465      4.19466      8.47372        -0.040291      0.190703     -0.666919
O	      8.72034      6.26244      8.16223        -0.086910      0.027928      0.052294
O	      2.20134      6.17740      6.20731         0.241384      0.001360      0.341633
O	      4.44960      8.34960      6.07414        -0.072830     -0.084823      0.558458
O	      4.45288      6.26524      8.35602        -0.234782     -0.013966      0.241073
O	      6.61707      8.34843      8.41871        -0.006283      0.576532     -0.053683
O	      6.61060      6.11212     10.52322         0.032955      0.313864     -0.012607
