# total energy = -229.08030570 eV
 
CRYSTAL
PRIMVEC
0.100847 6.456305 6.266797 
6.319603 0.010851 6.356251 
4.227185 4.380196 -0.006819 
PRIMCOORD
36 1
Li	      6.15518      0.13074      6.30115        -0.084431      0.028643      0.004089
Li	      4.13067      2.34129      2.25784         0.011864     -0.086368      0.008219
Li	      4.26898      0.21819      4.37485         0.020097     -0.003876      0.029338
Li	      6.20513      2.24700      4.28599         0.037957     -0.024179     -0.003711
Li	      0.12901      2.02740      1.97646         0.014657     -0.010666      0.032437
Li	      8.45246      4.34681      8.43410        -0.018040      0.070984     -0.038685
Li	      2.19401      2.09242      4.09237        -0.033268     -0.006559      0.013438
Li	      4.37501      2.11460      6.20252        -0.017029     -0.161608      0.011826
Li	      6.37543      4.35730     10.53294        -0.016369     -0.004012      0.016090
Sc	      2.20039      6.50884      4.21194         0.078085     -0.073554      0.105767
Sc	      6.28363      8.58500      6.21685        -0.002320      0.042064     -0.008085
Sc	      8.52610      8.67145      8.48886        -0.036930      0.106141      0.071173
Sc	      6.33738      6.51662      8.51136        -0.049142      0.018388      0.071283
Fe	      6.44274      4.30272      6.23548         0.266716     -0.060322     -0.017611
Co	      2.14861      2.27538      0.06687         0.009006     -0.081654     -0.211407
Co	      6.30934      4.41981      2.13730         0.095251     -0.054527     -0.212857
Co	      4.26094      6.49967      6.29841        -0.040051     -0.077965      0.055690
Cu	      4.28560      4.24930      4.15447        -0.056065      0.105769      0.087515
O	      4.22447      2.26926      4.24044        -0.020966     -0.036694      0.022131
O	      2.12286      1.93747      2.01119        -0.139445      0.028536     -0.382729
O	      4.42187      4.38967      2.19634         0.114291     -0.045076     -0.147724
O	      6.28551      4.35002      4.14039         0.220702      0.040875     -0.080137
O	      6.52511      2.30696      6.32283         0.303514     -0.027152      0.146667
O	      8.38729      4.31390      6.34587         0.073716      0.369504     -0.087270
O	      2.23618      4.37401      4.19689        -0.163463      0.066771      0.017907
O	      4.28831      6.39150      4.42332        -0.041798      0.061911     -0.104785
O	      4.29038      4.29778      6.30349        -0.051604      0.737741      0.006786
O	      6.23125      6.48222      6.33027        -0.290107      0.145258     -0.006017
O	      6.34388      4.44763      8.30298        -0.083040      0.028155      0.069245
O	      8.43265      6.58978      8.48228         0.021987      0.121592      0.048457
O	      2.27173      6.42849      6.39100         0.238588     -0.223778     -0.002886
O	      4.21968      8.61964      6.23860        -0.318467     -1.020368      0.204813
O	      4.19100      6.43582      8.25570        -0.015116     -0.009434      0.131900
O	      6.42507      8.69669      8.31742         0.059405     -0.020792     -0.019643
O	      6.43401      6.48630     10.50702         0.072629     -0.001406     -0.053574
O	      8.60223      8.59145     10.51617        -0.160815      0.057657      0.222350
