# total energy = -228.04574409 eV
 
CRYSTAL
PRIMVEC
-0.019146 6.315071 6.364852 
6.271086 -0.007360 6.353269 
4.196821 4.218391 -0.020986 
PRIMCOORD
36 1
Li	      4.23390      4.21531      0.06540        -0.063424      0.025014     -0.019163
Li	      6.14126      4.21418      2.13295        -0.014938     -0.001089      0.044686
Li	      8.30304      4.27469      4.28842         0.031942      0.052854      0.002083
Li	      4.21902      6.22592      2.04155         0.043195     -0.044521     -0.051496
Li	      4.15855      4.25855      4.29959         0.033472     -0.042245     -0.032066
Li	      4.17472      2.29542      6.31921         0.050630      0.010945     -0.011112
Li	      6.24369      4.13766      6.40128         0.001898     -0.016971      0.013463
Li	      4.14909      6.21738      6.41375         0.045685     -0.012314      0.051573
Li	      4.17381      4.22775      8.28922         0.022186      0.093732     -0.045780
Sc	      6.18980      2.15731      4.28068        -0.208648      0.030524      0.009392
Sc	      8.49700      4.25783      8.35762        -0.042057     -0.059034     -0.153521
Sc	      6.28399      6.17900      4.28515         0.176571     -0.183559     -0.051123
Sc	     10.39554      8.44295     10.62465        -0.012624      0.132468     -0.116674
Fe	      2.03594      2.06524      0.06285         0.022278     -0.027896      0.193743
Fe	      6.23748      6.33470      8.38427        -0.033234      0.012614     -0.048631
Co	      2.10875      6.30859      4.22589         0.443456     -0.022865      0.434062
Ni	      4.19375      8.43102      8.44674        -0.048814     -0.064285      0.075515
Ni	      2.12913      4.24977      6.36827        -0.108952     -0.013352      0.165689
O	      4.03430      4.24656      6.33158         0.221001      0.003833      0.012830
O	      2.11448      2.09907      2.09465        -0.087229     -0.020941      0.107894
O	      4.19531      4.17506      2.09143        -0.030566      0.090423     -0.003341
O	      4.15401      2.06687      4.21270        -0.061796      0.027178      0.089762
O	      6.29183      4.19338      4.22227        -0.018374      0.100017     -0.002783
O	      6.34517      2.07962      6.34103        -0.106766     -0.032866     -0.042616
O	      8.38496      4.00263      6.35296         0.041508      0.148495     -0.027591
O	      2.05147      4.28940      4.21266         0.036367      0.122990     -0.037895
O	      4.12846      6.39298      4.13106         0.396177      0.001894     -0.138702
O	      6.30892      6.43472      6.34903         0.003083     -0.069857     -0.122449
O	      6.27780      4.42655      8.48377         0.010058     -0.381658      0.065386
O	      8.22796      6.33546      8.59936         0.198641      0.023784     -0.401021
O	      2.11546      6.29443      6.16584        -0.024588      0.032467      0.193397
O	      4.21200      8.41933      6.34532        -0.054739     -0.022228     -0.157317
O	      4.40486      6.35222      8.50770        -0.240918     -0.035549      0.026534
O	      6.26742      8.29567      8.46025         0.098743      0.335345      0.044554
O	      6.42188      6.32830     10.54440        -0.753195     -0.035231      0.000107
O	      8.33544      8.24910     10.70050         0.033972     -0.158114     -0.067390
