# total energy = -231.06588576 eV
 
CRYSTAL
PRIMVEC
0.027598 6.379096 6.241275 
6.422998 0.010449 6.257705 
4.279058 4.261143 0.009864 
PRIMCOORD
36 1
Li	      4.31696     10.51324      6.26283         0.032207     -0.025748     -0.006629
Li	      2.31532      8.49661      6.22369         0.044655     -0.037174     -0.000701
Li	      4.40528      6.28939     10.37303        -0.013500     -0.013399     -0.016628
Li	      4.25409      4.30284      4.16932         0.020809      0.006359      0.002423
Li	      6.34432      4.36855     10.38047        -0.020228     -0.002538     -0.024952
Li	      6.40763      8.60403      6.33007        -0.046123      0.010918      0.056442
Li	      4.21407      6.40073      6.33461        -0.009094      0.009919      0.036024
Li	      4.37535      4.28548      8.34717         0.045950     -0.007398      0.019006
Li	      6.34963      6.34660      8.40035        -0.092189     -0.004224     -0.042445
Sc	      6.51359      8.45869     10.36007         0.053792     -0.020135     -0.049898
Sc	      2.10048      2.24075      4.13517        -0.032517     -0.028004     -0.014406
Sc	      8.52647      6.45424      6.30311        -0.049878      0.044061      0.001575
Sc	      6.40328      4.29033      6.26592        -0.036001      0.053904     -0.044197
Fe	      4.25137      6.36292      2.10424         0.184804     -0.222084     -0.098679
Fe	      2.14321      6.37511      4.33556         0.097832     -0.013248     -0.089348
Co	      2.17873      6.36549      8.26411         0.032439      0.020185     -0.028122
Co	      4.30347      8.50047      8.24880         0.123815     -0.142579     -0.197424
Cu	      8.53885      4.31442      8.33019        -0.015666      0.056758      0.021102
O	      4.30593      8.51856      6.46331         0.013158     -0.035160      0.260194
O	      2.18361      1.94288      2.03934         0.038785     -0.106395      0.033374
O	      4.43994      4.16865      2.07496         0.117606     -0.070235     -0.016990
O	      4.26725      2.14532      4.10569        -0.020604      0.037838     -0.018199
O	      6.44962      4.27007      4.09364        -0.017737      0.006713      0.028053
O	      6.36565      2.16890      6.27119        -0.013228     -0.010093      0.008878
O	      8.52680      4.32796      6.37321         0.017293     -0.037851     -0.110775
O	      2.17021      4.29940      4.03953        -0.014673     -0.000848      0.098400
O	      4.29501      6.35835      4.06663         0.006415      0.009703      0.060290
O	      4.35738      4.21904      6.29837         0.027651     -0.016379      0.015852
O	      6.46771      6.35943      6.20957         0.006840      0.040050      0.013275
O	      6.48415      4.10401      8.32360        -0.163883      0.191626     -0.017204
O	      8.70852      6.41048      8.39399        -0.105639      0.083440     -0.014360
O	      2.18933      6.35810      6.27357        -0.013067      0.006594      0.110149
O	      4.14927      6.59882      8.33828         0.011831      0.177517     -0.000292
O	      6.25015      8.65275      8.30048        -0.118872     -0.024700      0.051966
O	      6.55401      6.41590     10.38414        -0.057619     -0.002255     -0.011053
O	      8.54742      8.42012     10.40218        -0.035365      0.064861     -0.014700
