# total energy = -230.78634301 eV
 
CRYSTAL
PRIMVEC
0.066452 6.210515 6.322387 
6.376302 -0.001158 6.390986 
4.232610 4.167392 0.017461 
PRIMCOORD
36 1
Li	      6.49395      6.29300     12.55642        -0.054978      0.042861     -0.091239
Li	      2.14651      8.21224      6.32287         0.065534     -0.000220     -0.000729
Li	      2.26697      6.29840      8.40015         0.051488      0.018977     -0.015205
Li	      4.43095      6.22982     10.66069         0.054793      0.023980      0.077622
Li	      6.34121      2.04780      4.38709        -0.009827     -0.034909     -0.001538
Li	      2.18584      2.02380      4.17944         0.027385     -0.025345     -0.028176
Li	      8.53964      6.16469      6.36984         0.005155     -0.015993     -0.022197
Li	      8.47545      6.27547     10.72919        -0.007998     -0.008459      0.018966
Li	      4.22908      6.24053      6.36460        -0.036424      0.013312      0.025573
Sc	      0.11809      1.96248      2.02595         0.089029     -0.100442     -0.023073
Sc	      4.20376      8.28075      4.39291        -0.051172      0.021168      0.037871
Sc	      2.18964      4.23658      6.30793        -0.007637     -0.001027      0.051094
Sc	      8.45697      8.37213      8.57376        -0.142205      0.107268      0.022827
Fe	      6.48821      4.15700      6.21442        -0.129504      0.037515      0.110102
Fe	      6.42049      6.23990      8.52867        -0.049276      0.039939      0.005374
Co	      4.20781      2.09321      2.14175         0.049184     -0.076425      0.054903
Co	      4.26426      4.12299      4.22771         0.070664     -0.114823      0.014909
Ni	      8.52917      4.15201      8.43959         0.012410      0.000326      0.005864
O	      2.24439      2.11711      2.11358        -0.037083     -0.116463      0.027698
O	      4.22371      4.04288      2.27824         0.035784      0.054033      0.097677
O	      4.22699      2.26455      4.05592         0.016707      0.133644      0.034150
O	      6.12671      4.16173      4.27462        -0.137040     -0.018151     -0.082999
O	      6.36897      2.15536      6.42820         0.015818     -0.066205      0.031923
O	      8.39279      4.18719      6.37743         0.132457      0.005724     -0.069078
O	      2.24514      4.12422      4.21313         0.047647      0.010356     -0.035767
O	      4.27099      6.10945      4.18768        -0.002903     -0.048658     -0.023119
O	      4.30966      4.13125      6.26277         0.014491      0.012113     -0.060608
O	      6.39431      6.16733      6.52349        -0.019904     -0.011901     -0.042461
O	      6.36676      4.12135      8.53966         0.030145     -0.023742     -0.064631
O	      8.51697      6.26349      8.49758         0.048091      0.080807     -0.022126
O	      2.15366      6.17379      6.38203         0.008323      0.039735     -0.041724
O	      4.32236      8.28714      6.42955        -0.053518      0.002146     -0.034231
O	      4.35060      6.32094      8.53412        -0.036915      0.026494     -0.002310
O	      6.35593      8.25521      8.47599        -0.051155      0.057964     -0.024357
O	      6.43147      6.14013     10.50759         0.057787     -0.045065      0.040195
O	      8.58467      8.31494     10.54662        -0.005350     -0.020534      0.028820
