# total energy = -233.49327709 eV
 
CRYSTAL
PRIMVEC
-0.022367 6.356589 6.435442 
6.315961 -0.026999 6.440186 
4.182347 4.212482 0.010533 
PRIMCOORD
36 1
Li	      4.03935      4.20345      0.16649        -0.105054      0.174808      0.153051
Li	      2.12363      2.15223      0.17928        -0.158354      0.083977      0.011284
Li	      2.03891      0.08674      2.03232        -0.141284      0.153253      0.067750
Li	      4.16406      8.37423      8.50344         0.000159     -0.045657      0.006263
Li	      8.42323      4.14943      4.52540        -0.035669     -0.077683      0.058640
Li	      8.41912      4.18076      8.36737        -0.029684      0.030398     -0.107278
Li	      8.40203      6.09394      6.49539         0.146347     -0.139148      0.088099
Li	      6.48630      4.20855      6.45478         0.093184     -0.193675      0.005308
Li	      2.08545      6.33758      4.35694         0.015390      0.087353     -0.035392
Sc	      6.30494      2.06924      4.42283         0.237803      0.052125      0.292314
Sc	      2.16642      2.03584      4.26868        -0.365226     -0.287608     -0.262158
Sc	     10.44183      8.49156     10.79364        -0.232728     -0.145580     -0.125281
Sc	      4.21833      4.23082      8.48460         0.321703     -0.410785      0.259802
Fe	      4.14673      4.23280      4.23199         0.226008      0.346663     -0.066365
Fe	      2.04521      4.34343      6.49925        -0.085680     -0.106173     -0.101346
Co	      6.34079      6.31491      8.54766        -0.193579      0.009057     -0.217320
Co	      6.29163      2.06583      8.41572         0.205963     -0.366957     -0.007200
Co	      4.17562      6.34556      6.45885         0.090870      0.214400     -0.169702
O	      8.42084      4.16135      6.42411         0.054474     -0.008017     -0.120636
O	      1.88151      2.10745      2.22170         0.158683      0.002692      0.220803
O	      4.13587      4.40914      2.27148        -0.041949     -0.092626      0.054149
O	      4.17896      2.22277      4.25468         0.212185     -0.050111     -0.102451
O	      6.18961      4.20159      4.33603        -0.051493     -0.101133     -0.096114
O	      6.30757      2.05631      6.42095        -0.068644      0.002495     -0.173911
O	      2.08856      4.18605      4.43210         0.033205      0.026354      0.058120
O	      4.17952      6.32758      4.46834         0.024111     -0.047935      0.079220
O	      4.11686      4.39611      6.38089        -0.038773     -0.025867     -0.073345
O	      6.18917      6.40135      6.46560        -0.018022      0.076926      0.812462
O	      6.30189      4.08528      8.63503        -0.063766      0.886997     -0.003413
O	      8.45792      6.33423      8.50285        -0.643065      0.287757      0.089517
O	      2.23426      6.27471      6.47538         0.035744      0.054075      0.046899
O	      4.21932      8.34823      6.44220         0.110123     -0.061271      0.093296
O	      4.30678      6.31470      8.36928         0.532811      0.273982      0.168251
O	      6.30978      8.41927      8.56791        -0.163755     -0.836343     -0.078287
O	      6.30353      6.30853     10.60277         0.072958      0.275481     -0.774285
O	      8.38495      8.46636     10.59886        -0.134997     -0.042222     -0.050748
