# total energy = -224.99664642 eV
 
CRYSTAL
PRIMVEC
-0.016801 6.325553 6.499244 
6.290633 -0.015665 6.498167 
4.179003 4.201670 0.003786 
PRIMCOORD
36 1
Li	      8.29116      2.23321      6.42047         0.052437      0.001044      0.031152
Li	      4.24543      8.33159      8.70212        -0.053994     -0.033184      0.102809
Li	      4.24537      6.23240     10.73182        -0.121725     -0.011138     -0.020070
Li	      4.15595      4.16946      4.40194         0.012966      0.020124      0.113717
Li	      8.33334      6.37520      6.58538        -0.073930      0.040636      0.029857
Li	      6.41020      4.08945      6.55805        -0.039522      0.138665      0.002757
Li	      6.20245      4.27336     10.77646        -0.014502     -0.145019     -0.116789
Li	      4.15408      4.23078      8.64684         0.029489     -0.061797     -0.056663
Li	      6.16817      6.37369      8.74383         0.015267     -0.004425     -0.109858
Sc	      6.26846      4.14837      2.22636         0.159129      0.106419      0.073363
Sc	      6.19126      2.08831      4.43854        -0.140154      0.507565     -0.173084
Sc	      8.37490      6.33215     10.74368         0.655978     -0.054941     -0.202324
Sc	      4.25461      6.32033      6.52728         0.100395     -0.403370     -0.117434
Fe	      8.34820      4.18630      8.58487        -0.115379      0.005888      0.537983
Fe	      2.20950      2.09715      4.32498        -0.252623      0.077397     -0.007460
Cu	      6.27306      2.12371      8.58835        -0.007237      0.351242      0.383005
Cu	      6.29514      8.40579      6.53591         0.283557     -0.191800     -0.087807
Ni	     10.40858     10.47850     12.98312        -0.243569     -0.050573      0.296334
O	      8.40645      4.15514      6.74927         0.534947     -0.058009     -1.057246
O	      6.42532      4.12363      8.58304        -0.449162      0.083522     -0.026468
O	      2.01728      2.09577      2.22088         0.280386     -0.123991     -0.033752
O	      4.10317      4.29795      2.07773         0.277444     -0.284531     -0.547730
O	      4.11556      2.08452      4.34787         0.329996     -0.041387     -0.035844
O	      6.26044      4.26260      4.32119        -0.009161     -0.218746     -0.029425
O	      6.28092      2.04419      6.56786         0.036610     -0.695425     -0.605105
O	      2.10415      4.15966      3.99696         0.015799      0.098679      0.471798
O	      4.21670      6.31352      4.33288        -0.023080      0.021630      0.367168
O	      3.99230      4.24413      6.49956         0.310097      0.106884     -0.031503
O	      6.29592      6.51056      6.38296        -0.060114     -0.319015     -0.010005
O	      8.44824      6.25228      8.68596        -0.321459      0.084375      0.096157
O	      2.09597      6.13681      6.48268        -0.426061      0.456576      0.002341
O	      4.39748      8.43433      6.50020        -0.492979      0.832980     -0.016647
O	      4.11536      6.31851      8.55630         0.055767      0.042427      0.057725
O	      6.22459      8.47060      8.87600        -0.037075     -0.112772      0.100711
O	      6.29651      6.32616     10.89084        -0.250209     -0.196681      0.570321
O	      8.30721      8.34008     10.92199        -0.018327      0.030753      0.048015
