# total energy = -225.55566923 eV
 
CRYSTAL
PRIMVEC
0.026024 6.331806 6.577787 
6.285227 0.038372 6.565075 
4.190577 4.213330 0.026142 
PRIMCOORD
36 1
Li	      4.24710     10.50729      6.64657         0.009296     -0.007446      0.024326
Li	      6.37307     10.50920      8.87282         0.049142     -0.089437     -0.050749
Li	      4.30500      8.35975      8.77308         0.090179     -0.031807     -0.045340
Li	      4.13128      6.42267     10.73476         0.066604     -0.058492     -0.078873
Li	      2.20174      1.99929      4.35403        -0.051570      0.003307     -0.008242
Li	      6.32535      4.19797      6.59912        -0.008632      0.013281      0.001437
Li	      6.27984      4.27774     10.88099         0.020400     -0.048910      0.012393
Li	      8.42719      8.49404      8.85915        -0.094606      0.054485      0.019690
Li	      6.20586      6.43489      8.87965        -0.026288      0.140069      0.045683
Sc	      8.37061      2.18934      6.57742        -0.038881      0.016229     -0.127084
Sc	      8.29444      4.25605      8.77867         0.028044     -0.006590      0.194509
Sc	      4.30486      4.19021      4.32354        -0.316551      0.382462      0.058886
Sc	      4.29658      6.31948      6.79061         0.001633     -0.102379     -0.186510
Fe	      8.38710      6.32580      6.58742         0.017431     -0.140503      0.075698
Fe	      8.34202      6.39228     10.95938         0.817010     -0.232118      0.026513
Cu	      6.26863      2.17768      8.75425         0.042929     -0.063484      0.244939
Cu	      6.25626      8.46715      6.69578        -0.082979      0.108146      0.088725
Cu	      6.31701      8.46916     10.83992         0.100600     -0.178008      0.159495
O	      6.29327      8.47216      8.72459         0.007247     -0.005369      0.009696
O	      6.49666      6.47188     10.91662        -1.147281      0.438854     -0.093830
O	      2.01934      2.13704      2.13833        -0.016993     -0.002757      0.026743
O	      4.14783      4.28353      2.28830         0.030977      0.084604     -0.108654
O	      4.27965      2.11420      4.51221         0.103915     -0.059581     -0.021932
O	      6.30421      4.13289      4.41399         0.119835     -0.178547     -0.028816
O	      6.23744      2.14624      6.72326         0.012657      0.011802     -0.428497
O	      8.37817      4.28034      6.66470        -0.028928     -0.008631      0.071000
O	      2.09256      4.41482      4.33757         0.025831     -0.581158     -0.057531
O	      4.05684      6.32792      4.37811         0.417384     -0.095366      0.127013
O	      4.11278      4.19499      6.49699         0.056044     -0.050973     -0.018435
O	      6.37213      6.44475      6.52848         0.101032     -0.065948     -0.036764
O	      6.27274      4.17271      8.78656        -0.096085     -0.067504     -0.057686
O	      8.44051      6.36830      8.72536         0.031258     -0.013540     -0.162523
O	      2.15437      6.32156      6.47886        -0.000622      0.010924      0.124840
O	      4.20869      8.41041      6.58410        -0.049612      0.083071      0.024890
O	      4.22820      6.34427      8.71494        -0.009804      0.010435      0.102265
O	      8.32135      8.32214     11.02071        -0.180617      0.730880      0.072725
