# total energy = -236.20317741 eV
 
CRYSTAL
PRIMVEC
-0.022552 6.369183 6.277530 
6.388855 -0.044092 6.299231 
4.241577 4.242954 -0.011453 
PRIMCOORD
36 1
Li	      6.34146     10.50508      8.32232         0.029545     -0.061421     -0.061145
Li	      4.18753      2.22630      2.13025        -0.036225      0.027558     -0.012809
Li	      6.39020      8.53731     10.37658         0.000688     -0.022448     -0.017971
Li	      4.26439      6.33743      2.19093        -0.004591     -0.016979     -0.005340
Li	      4.26519      4.35388      4.06258         0.014271     -0.004035     -0.024515
Li	      4.19331      8.32909      4.26158         0.015936     -0.019417      0.014065
Li	      2.35456      6.40617      4.20683         0.062720      0.036381     -0.015070
Li	      2.10570      4.36432      6.23054        -0.003870      0.057701     -0.004178
Li	      4.15073      6.32753      6.19079         0.005444     -0.034868      0.058113
Sc	      0.08264      6.30911      6.24183         0.005373     -0.052575      0.003758
Sc	      2.14649      4.22993      2.24296        -0.012349      0.081399      0.024610
Sc	      4.32407      2.22328      6.19653         0.000594      0.007870      0.039958
Sc	      6.30810      6.44799      8.42583         0.003608      0.030986     -0.005327
Fe	      2.17232      8.38034      6.29766        -0.101663      0.107356     -0.043688
Fe	      8.38148     10.53188     10.39399         0.000502      0.003865      0.045509
Fe	      6.19992      6.32403      4.19373         0.158247     -0.031546      0.015704
Co	      6.37619      4.21283      6.31946        -0.018165     -0.004436      0.003409
Co	      8.51636      8.44881      8.40192        -0.041718     -0.031910     -0.024858
O	      2.10419      2.16021      2.06318        -0.010689      0.014697      0.027753
O	      4.15514      4.26058      2.00435        -0.029213      0.004206     -0.008011
O	      4.14338      1.96625      4.19085        -0.056069      0.030352      0.015431
O	      6.38479      4.24852      4.36562        -0.005978      0.000003     -0.007429
O	      6.42374      2.19111      6.26893         0.010770     -0.021148      0.023207
O	      8.40844      4.19627      6.28800        -0.014412     -0.045798     -0.020090
O	      2.14340      4.10043      4.22531        -0.001883      0.007163     -0.023452
O	      4.32060      6.32543      4.18928        -0.070745      0.019869     -0.002163
O	      4.44391      4.23675      6.46419         0.006298     -0.047618     -0.016206
O	      6.42812      6.17125      6.28690         0.036932     -0.029215     -0.031315
O	      6.31319      4.24752      8.28053        -0.003836     -0.008016      0.004351
O	      8.45065      6.39036      8.35905        -0.000880     -0.005622     -0.008623
O	      2.07673      6.45189      6.22109        -0.061925     -0.043479      0.036996
O	      4.10757      8.53666      6.28401         0.059025      0.037046      0.016714
O	      4.22405      6.15002      8.43547         0.017250      0.012742     -0.057395
O	      6.56407      8.44966      8.30388         0.042443     -0.014212      0.001604
O	      6.17634      6.36911     10.47653        -0.012309      0.027417      0.025078
O	      8.46356      8.51255     10.42226         0.016873     -0.011868      0.033325
