# total energy = -230.60118566 eV
 
CRYSTAL
PRIMVEC
0.010461 6.305628 6.356180 
6.462301 -0.041553 6.409588 
4.278992 4.209720 0.001634 
PRIMCOORD
36 1
Li	      6.33724      4.25174      2.10597        -0.022379      0.046350     -0.012212
Li	      8.70129     10.42549     10.69374        -0.031934      0.027492      0.067707
Li	      0.13847      2.18375      2.11153         0.026412     -0.055815      0.004298
Li	      8.44893      4.17545      8.49423         0.010546      0.014736     -0.043509
Li	      8.45978      6.34500      6.44146        -0.007486     -0.046682     -0.031181
Li	      6.47219      4.24503      6.46650         0.008353     -0.005553     -0.022348
Li	      6.41274      4.20759     10.59997        -0.002348     -0.026533      0.021281
Li	      2.27356      4.09893      6.35991        -0.011989      0.024401     -0.037141
Li	      4.33908      6.22596      6.35953        -0.015796      0.014322     -0.008162
Sc	      4.21898      4.24752      0.13900        -0.047107     -0.040883      0.065010
Sc	      4.31283      8.28866      8.47715        -0.143979      0.075071     -0.035503
Sc	      6.47935      2.16473      4.34221         0.012843      0.082781      0.064714
Sc	      2.17589      6.25493      4.22620         0.040035     -0.007365      0.126444
Fe	      2.14484      2.14632      0.05303         0.002719     -0.042994      0.057347
Fe	      6.37670      6.30436      4.28106         0.035442      0.016808     -0.445904
Fe	      4.30036      4.20820      4.35239         0.003658     -0.080575     -0.133151
Cu	      6.44929      6.23804      8.46444        -0.019497      0.092682     -0.113715
Ni	      4.35589      4.17897      8.34196        -0.053255     -0.001486      0.015445
O	      6.39025      4.37947      8.50297         0.129119     -0.135133      0.024538
O	      2.18599      2.05644      2.20396         0.096693     -0.007031     -0.000046
O	      4.34613      4.08974      2.19670         0.012343      0.030433     -0.034826
O	      4.31100      2.12447      4.23486         0.038589     -0.030887     -0.009041
O	      6.37977      4.25639      4.19566         0.005246     -0.124713     -0.013161
O	      6.54566      2.08814      6.43420        -0.025316     -0.019340     -0.021397
O	      8.62753      4.03860      6.43989         0.076772      0.262552     -0.004584
O	      2.22975      4.12991      4.21720        -0.028292      0.123058     -0.016776
O	      4.30413      6.24584      4.14834        -0.059951      0.058030     -0.006965
O	      4.28253      4.18486      6.27687        -0.007350     -0.006738      0.033555
O	      6.41601      6.29605      6.07802        -0.003951     -0.004439      0.615430
O	      8.35800      6.31867      8.51395         0.021525     -0.112339      0.021557
O	      2.12387      6.42158      6.35056        -0.042019     -0.144086     -0.050409
O	      4.18447      8.43516      6.43144         0.066259      0.011148      0.023534
O	      4.54433      6.21895      8.48186         0.002499      0.034734      0.015433
O	      6.46138      8.18658      8.52531        -0.021750      0.049544      0.008052
O	      6.54105      6.36293     10.80861        -0.031276     -0.070395     -0.100630
O	      8.56905      8.34465     10.69758        -0.013378     -0.001155     -0.023683
