# total energy = -230.02150627 eV
 
CRYSTAL
PRIMVEC
-0.017920 6.453880 6.469997 
6.316370 0.040680 6.411368 
4.220026 4.272646 0.017919 
PRIMCOORD
36 1
Li	      2.07274      0.07140      2.07268         0.017701     -0.013578     -0.030826
Li	      0.04034      2.20404      2.21027        -0.002461      0.047102      0.025140
Li	      2.02072      4.27759      2.26611        -0.005623     -0.014259      0.025475
Li	      6.21072      6.54475      4.38185         0.066725      0.051493      0.043289
Li	      6.26716      4.41976      6.40756         0.007416      0.000904     -0.067050
Li	      2.09224      6.37509      4.31495         0.027775     -0.024370     -0.000071
Li	      2.06969      4.28961      6.32664         0.046619      0.031911     -0.017347
Li	      4.37329      6.43648      6.35312         0.019174     -0.016954      0.001855
Li	      6.37037      6.40969      8.53582         0.002029      0.007390      0.009963
Sc	      4.20465      8.59825      8.53961         0.028034     -0.015179     -0.043434
Sc	      4.15610      4.47452      4.27537        -0.096532     -0.021708     -0.027392
Sc	      8.27844      6.38995      6.54609         0.058257      0.015174      0.084626
Sc	      4.25184      4.34051      8.51914        -0.015669     -0.027962      0.011029
Fe	      2.07259      2.04846      0.08801        -0.023989      0.060284     -0.242949
Fe	      8.36905      4.29565      4.27956        -0.076062      0.006118      0.035508
Fe	      6.33203      8.60470     10.72702        -0.049508     -0.025434      0.040340
Cu	      0.11300      4.22055      4.28781        -0.066138      0.004027      0.138192
Cu	      4.22463     10.71522      6.50226         0.010172     -0.003918      0.185818
O	      1.98702      6.53891      6.45696         0.072074     -0.052774     -0.008840
O	      2.16934      2.14975      1.99589         0.031212      0.010374      0.157235
O	      4.22862      4.23198      2.16209        -0.001894     -0.048226      0.028264
O	      4.27216      2.15033      4.27078        -0.037300     -0.025738      0.008377
O	      6.34231      4.17375      4.34948        -0.046676     -0.017717     -0.020378
O	      6.35169      2.05140      6.31177        -0.042023      0.095417     -0.003647
O	      8.46526      4.25455      6.32210        -0.058979     -0.012350      0.023483
O	      2.10076      4.31798      4.31095         0.196239     -0.000359      0.010590
O	      4.22771      6.47308      4.32329        -0.007324      0.012319      0.010850
O	      4.21058      4.25449      6.43239         0.040386      0.007508     -0.037120
O	      6.33154      6.38859      6.47445         0.033501      0.068443     -0.016735
O	      6.31484      4.35959      8.77687        -0.089742      0.017512     -0.258406
O	      8.44521      6.56864      8.52820        -0.008340      0.017155      0.010945
O	      4.16001      8.64605      6.40673        -0.004637     -0.070489      0.132302
O	      4.20159      6.49150      8.76264        -0.002226     -0.016438     -0.088503
O	      6.33188      8.58233      8.77798        -0.029955     -0.007902     -0.106200
O	      6.22015      6.51480     10.87219         0.051259     -0.060433     -0.104251
O	      8.39318      8.68741     10.77541        -0.043497      0.022655      0.089872
