# total energy = -234.99629792 eV
 
CRYSTAL
PRIMVEC
-0.001315 6.371461 6.400543 
6.349145 -0.009699 6.408885 
4.237961 4.258330 -0.011358 
PRIMCOORD
36 1
Li	      4.23437      8.49168      8.52019        -0.030603      0.028744     -0.007851
Li	      6.32691      2.12584      4.33079         0.010167     -0.014013      0.083104
Li	      0.04613      2.11091      2.13506        -0.000768      0.023893     -0.016568
Li	      6.27842      6.39686      4.30945        -0.038932     -0.020981     -0.019530
Li	      8.42391      6.40083      6.38565        -0.018411     -0.016071     -0.015399
Li	      6.36539      4.29160      6.45213        -0.005419      0.058849      0.017411
Li	      4.26527      8.42281      4.28481        -0.024703     -0.011419      0.012591
Li	      4.31169      6.38321      6.35261        -0.006864     -0.044973     -0.030868
Li	      6.38885      6.32537      8.42867         0.008898     -0.093601     -0.028346
Sc	      4.25165      0.13633      4.25461         0.092378      0.001288      0.109190
Sc	      4.31037      4.19814      4.28362        -0.085300     -0.002579     -0.065830
Sc	      8.49109      6.38686     10.65462        -0.044175     -0.062003     -0.047177
Sc	      4.32093      4.22983      8.44115         0.173037     -0.126270     -0.015963
Fe	      4.23799      4.30188      0.03632        -0.061389      0.021236      0.066314
Fe	      2.10284      2.13241      0.02959         0.107476      0.053163      0.108717
Fe	      8.33095      4.21622      8.54727        -0.066923      0.168744      0.070619
Fe	      6.25953      8.29071      6.43979        -0.056250      0.517384     -0.496963
Cu	      2.12930      0.02301      2.15267        -0.072234     -0.050700     -0.224993
O	      6.29680      6.46226      6.41870         0.043683     -0.504820      0.006744
O	      2.13066      2.20296      2.03340         0.072277     -0.267621     -0.009228
O	      4.22008      4.25418      2.10158         0.090666      0.013200      0.036139
O	      4.26199      2.12230      4.28515        -0.010948      0.015461     -0.027330
O	      6.36985      4.26871      4.14247         0.108678     -0.024676      0.069736
O	      6.49075      2.02566      6.40832        -0.031253      0.076843      0.011718
O	      8.51326      4.18688      6.46049        -0.028221      0.074076     -0.159509
O	      2.12882      4.26235      4.20181         0.050661      0.058909      0.157794
O	      4.15544      6.28887      4.29538         0.000237     -0.043856     -0.004552
O	      4.14678      4.20660      6.38366        -0.010159      0.012516      0.074162
O	      6.39845      4.25366      8.48886        -0.282093      0.041203      0.036190
O	      8.43154      6.33458      8.58902        -0.006334      0.059787      0.026038
O	      2.06717      6.41678      6.46817         0.111711     -0.071027     -0.092264
O	      4.23988      8.59962      6.38073        -0.040808      0.016077      0.034924
O	      4.15655      6.32204      8.59192         0.047753      0.026080     -0.096285
O	      6.39913      8.60413      8.37439         0.040569      0.045857      0.547211
O	      6.33842      6.38552     10.82341         0.005849      0.013541     -0.118019
O	      8.49555      8.49600     10.66318        -0.042254      0.027756      0.008075
