# total energy = -226.64405287 eV
 
CRYSTAL
PRIMVEC
0.042292 6.416833 6.238594 
6.408009 -0.004997 6.284612 
4.265051 4.301926 0.003753 
PRIMCOORD
36 1
Li	      2.19640      6.36020      8.29283         0.001965      0.023833     -0.033280
Li	      8.55730     10.64577     10.41241        -0.015882     -0.006198     -0.008505
Li	      6.29325      2.34418      4.12821        -0.047535      0.013234     -0.042535
Li	     10.55486      6.50662      8.44353        -0.000644     -0.001250      0.049674
Li	      4.36308      4.20366      4.21185         0.001109     -0.003513     -0.035864
Li	      2.24628      6.48552      4.26050         0.022330      0.028026      0.024860
Li	      2.28377      4.42823      6.21829        -0.004325      0.022422      0.006371
Li	      4.06601      6.43640      6.27081        -0.019731     -0.005086     -0.019621
Li	      8.53772      8.50774      8.36304        -0.013806      0.043388      0.045596
Sc	      2.24869      4.36290      2.11189         0.029465     -0.072816     -0.001565
Sc	      6.36904      6.37878      4.18832         0.089246     -0.042490      0.060875
Sc	      6.30665      4.15599      6.24474         0.121897      0.082855     -0.033572
Sc	      6.42301      6.50646      8.41399        -0.112225      0.032430     -0.050399
Mn	      4.36723      8.56128      8.31480         0.033327     -0.088173      0.151381
Co	      4.26375      8.56326      4.19555        -0.038668     -0.027098      0.071375
Cu	      4.32664      2.14553      6.24667        -0.034660      0.110576      0.010094
Ni	      0.10767      6.42235      6.18584         0.039787      0.010802      0.041898
Ni	      2.20971      8.52528      6.20657        -0.156284      0.005481      0.085669
O	      2.11149      6.62282      6.23688        -0.018400     -0.343294     -0.014331
O	      2.31744      2.18896      2.03815         0.056638     -0.006467      0.134452
O	      4.27970      4.12986      2.06704        -0.078710     -0.026305      0.049426
O	      4.24038      2.16604      3.99233        -0.013485      0.073094      0.030036
O	      6.38045      4.33614      4.23528        -0.027258     -0.025681     -0.015357
O	      6.30217      2.08096      6.23342         0.188691      0.057789      0.062727
O	      8.52391      4.11980      6.29704        -0.040314      0.276111      0.069368
O	      1.96658      4.21842      4.17937        -0.066778      0.024624     -0.069723
O	      4.33152      6.65289      4.17988        -0.000676      0.098740     -0.007764
O	      4.29316      4.23875      6.27223        -0.009662     -0.059219      0.016527
O	      6.63359      6.29933      6.27141        -0.272474     -0.095079      0.099655
O	      6.44916      4.30621      8.45838        -0.007665     -0.013671      0.061111
O	      8.54344      6.39048      8.41595         0.027572      0.044129     -0.222652
O	      4.26812      8.63751      6.18030         0.173483     -0.017853      0.003691
O	      4.36487      6.64696      8.28868         0.057963      0.017618     -0.047116
O	      6.29568      8.55386      8.35196        -0.024113     -0.020593     -0.035369
O	      6.43949      6.16085     10.46280        -0.003957     -0.124031     -0.189845
O	      8.81521      8.55234     10.52416         0.163779      0.013664     -0.247286
