# total energy = -225.53104259 eV
 
CRYSTAL
PRIMVEC
0.018733 6.426629 6.280473 
6.386559 0.018159 6.281127 
4.272414 4.299672 -0.002728 
PRIMCOORD
36 1
Li	      6.35123      6.46706     12.40492         0.004740      0.030090      0.033178
Li	      4.36710      8.54364      8.29782         0.070166     -0.032564      0.015477
Li	      4.48679      6.43378     10.48016        -0.054364     -0.024450     -0.120071
Li	      8.52744      6.33871      6.31927         0.002445      0.036027      0.039242
Li	      6.42265      4.40216      6.32821        -0.061256     -0.006739      0.082354
Li	      6.44486      4.55018     10.45190         0.007776      0.046100     -0.044408
Li	      8.35743      6.41238     10.49727         0.058397      0.050779     -0.050461
Li	      6.32484      8.54093      6.27190         0.030151     -0.007886      0.090241
Li	      6.42143      6.45211      8.37962         0.030084      0.042575     -0.006638
Sc	      8.62042      8.65810     12.48882         0.097310     -0.096377      0.048323
Sc	      6.44575     10.61809      8.31201         0.158128     -0.358250      0.161849
Sc	      6.26862      2.21940      8.29547         0.007026      0.121119      0.133819
Sc	      6.48287      6.46824      4.28290        -0.092671     -0.099423     -0.189149
Mn	      4.27765      4.29445      4.23996         0.135883     -0.046555      0.018930
Co	      8.55574      8.58294      8.38365        -0.391580      0.278730      0.684914
Cu	      8.51488      4.36640      8.34448        -0.153175      0.052981      0.144246
Cu	      4.29795      6.44248      6.27189        -0.050149      0.333597      0.060939
Cu	      6.42152      8.48832     10.52567        -0.176494      0.095388     -0.238929
O	      4.23411      4.40276      6.16077        -0.035003      0.058112      0.123882
O	      6.37835      6.53699     10.47300         0.012049     -0.117305      0.120892
O	      2.09071      2.03154      2.10775         0.029239     -0.037640     -0.113573
O	      4.29530      4.31153      2.25134         0.073004     -0.013332      0.016473
O	      4.30501      2.32283      4.22964        -0.093510     -0.070798      0.016362
O	      6.24253      4.31285      4.19475         0.003279      0.034206      0.007494
O	      6.44919      2.11899      6.26127         0.022156      0.004763      0.169461
O	      8.53112      4.28746      6.44228         0.006517      0.038577     -0.120998
O	      2.30819      4.27134      4.04646        -0.007760     -0.005743     -0.011737
O	      4.33217      6.25249      4.18964        -0.018065     -0.217607     -0.319164
O	      6.30564      6.47622      6.25023        -0.091243     -0.032993      0.105977
O	      6.24562      4.25473      8.45652         0.252055     -0.036071      0.030109
O	      8.53948      6.63522      8.33602        -0.207517      0.146426     -0.178395
O	      2.22346      6.46231      6.30085         0.120519      0.042429     -0.186622
O	      4.28640      8.47355      6.24129        -0.059503      0.110833     -0.033473
O	      4.25431      6.24116      8.29624         0.079618     -0.495126      0.163203
O	      6.53425      8.56261      8.48531         0.052992      0.128254     -0.037524
O	      8.40578      8.65053     10.44382         0.238755      0.047874     -0.616223
