# total energy = -229.42885022 eV
 
CRYSTAL
PRIMVEC
0.032422 6.344063 6.271467 
6.348950 0.037561 6.266310 
4.269659 4.262879 -0.011711 
PRIMCOORD
36 1
Li	      6.31375      4.36478      2.11507        -0.008633     -0.009475     -0.021400
Li	      4.16237      0.15026      4.17451        -0.019514      0.009466      0.030018
Li	      2.13263      4.18175      2.19407         0.025124     -0.056295     -0.033056
Li	      2.10984      2.23404      4.16630         0.051498     -0.058394     -0.027545
Li	      4.26069      4.19067      4.22315        -0.002013      0.006391      0.021023
Li	      8.39282      6.42412      6.23330         0.002327      0.000579      0.061789
Li	      0.19534      4.09397      4.16361        -0.025908     -0.011799     -0.039808
Li	      6.31273      8.43257      6.12833        -0.066384     -0.011458      0.065374
Li	      4.40603      6.37029      6.18610         0.032680     -0.046808     -0.023758
Sc	     10.53486      4.31752      6.23761         0.013042      0.101920      0.035392
Sc	      8.53463      8.51297     12.50010        -0.120007     -0.010966      0.048398
Sc	      2.22426      6.16816      4.13680        -0.008231     -0.016633     -0.033199
Sc	      4.22125      4.33011      8.33262         0.026815      0.008854     -0.019302
Mn	      4.25155      2.12744      2.14412        -0.009105      0.026952      0.049796
Co	      6.37211      4.34627      6.25394         0.026337     -0.008451     -0.008625
Co	      6.36924      6.38590      8.33465         0.027967     -0.043275     -0.004215
Cu	      4.35171      6.32793      2.15376        -0.057186     -0.036263     -0.158762
Ni	      6.31420      2.21554      4.17056         0.059334     -0.020581      0.032722
O	      6.40875      4.22032      4.43797        -0.009374      0.080875      0.115737
O	      2.33415      2.06882      2.07768         0.026784      0.028144      0.000987
O	      4.31059      4.09489      2.04124        -0.023563     -0.023266     -0.029505
O	      4.31240      2.14566      4.00790        -0.102337      0.025683     -0.045968
O	      6.36912      2.22245      6.42888         0.029603      0.057063     -0.103631
O	      8.40677      4.28322      6.27917        -0.032577     -0.051014      0.009223
O	      2.13145      4.22296      4.21255         0.025622      0.050545     -0.025949
O	      4.27329      6.38514      4.01651         0.024749     -0.023867      0.210952
O	      4.49722      4.30457      6.29607         0.101380      0.000552     -0.029476
O	      6.39438      6.23946      6.40402        -0.011930     -0.031021      0.066808
O	      6.35330      4.41446      8.21128        -0.024384      0.077257     -0.094754
O	      8.34549      6.48440      8.33390        -0.110170      0.056483      0.006904
O	      2.04094      6.41240      6.21557         0.003336      0.006478      0.002463
O	      4.24828      8.53878      6.37085        -0.003305     -0.020054      0.031148
O	      4.38971      6.48234      8.35015         0.030386     -0.034700      0.000556
O	      6.31619      8.37179      8.32894         0.065377      0.040223     -0.070040
O	      6.38478      6.44385     10.37705         0.021495     -0.044921     -0.031597
O	      8.46277      8.49700     10.41575         0.040764     -0.018225      0.011300
