# total energy = -228.59038534 eV
 
CRYSTAL
PRIMVEC
-0.020275 6.577079 6.244566 
6.252159 0.005969 6.217848 
4.182166 4.380491 -0.009399 
PRIMCOORD
36 1
Li	      4.11200      4.26313      0.05618        -0.116056      0.162668     -0.102675
Li	      8.27862      2.37730      6.26645        -0.176360      0.130978     -0.032652
Li	      4.12414      2.25478      2.02574        -0.046573      0.022000      0.097882
Li	      4.13707      0.08162      4.17674        -0.007451     -0.030442      0.040742
Li	      6.33118      2.13871      8.15762        -0.135413      0.036955      0.015034
Li	      8.33377      6.44687      6.15941         0.104712     -0.162121      0.147002
Li	      6.39030      4.21935      6.27628         0.137390     -0.198327      0.016915
Li	      6.24563      4.56793     10.43120        -0.067720      0.092383     -0.130667
Li	      6.30835      6.47256      8.37199         0.081213     -0.045626      0.131938
Sc	      6.21753      2.05743      4.28943         0.242181     -0.185591      0.282365
Sc	      4.09709      4.36052      4.12409         0.093192      0.014332     -0.373958
Sc	      4.22698      6.77122      6.21339        -0.168786     -0.249056     -0.070284
Sc	      4.28609      4.32302      8.29399         0.319457     -0.376880      0.499427
Mn	      6.21449     10.94302      8.28974         0.081533      0.092591      0.130216
Co	      8.28628      6.59708     10.37189        -0.081172      0.271995      0.347801
Co	      2.05256      4.45561      6.22574        -0.175841     -0.230228      0.034904
Cu	      8.20250      4.54763      8.16433         0.216931      0.003065      0.217704
Cu	      2.13066      2.14787      4.11710        -0.109478      0.003246     -0.157528
O	      2.10033      1.88629      2.15595         0.022391     -0.186011     -0.032714
O	      8.33821      4.39902      6.31685        -0.089292     -0.117738     -0.109147
O	      4.28233      4.34973      2.07145        -0.035582     -0.029156      0.044878
O	      4.11742      2.22922      4.13188        -0.024258      0.104236     -0.022378
O	      6.23175      4.23716      3.97268        -0.120863     -0.162196     -0.068746
O	      6.21904      2.26801      6.21345        -0.027339     -0.019029     -0.234885
O	      2.02848      4.63769      4.22081        -0.029835      0.037685     -0.593246
O	      4.09568      6.49636      4.17008         0.227212     -0.125247      0.180856
O	      4.06852      4.49101      6.22050        -0.284085      0.085343     -0.113784
O	      6.28542      6.86842      6.09549        -0.083377      0.120445     -0.051404
O	      6.29163      4.44061      8.26758        -0.124172      0.038973     -0.128212
O	      8.33513      6.56623      8.50858         0.063160      0.524807     -0.292734
O	      2.07471      6.44123      6.26937         0.093651      0.073889      0.099629
O	      4.30555      8.77209      6.25279         0.330172      0.029860     -0.038731
O	      4.02180      6.45902      8.31384         0.016654      0.042644     -0.219222
O	      6.28207      8.91047      8.18056        -0.064926      0.115324      0.476673
O	      6.35846      6.60068     10.36809        -0.089582      0.108887      0.057958
O	      8.31273      8.55183     10.37369         0.028311      0.005345     -0.048958
