# total energy = -229.17575113 eV
 
CRYSTAL
PRIMVEC
-0.023257 6.174967 6.339158 
6.435486 -0.033933 6.349023 
4.278930 4.112194 -0.010622 
PRIMCOORD
36 1
Li	      2.22542      8.14560      6.43228         0.039867      0.005873      0.003690
Li	      4.15632      2.08124      2.00072        -0.044341      0.037244     -0.082267
Li	      6.43807      2.06040      4.21752         0.072498      0.014547     -0.023225
Li	      4.39809      6.08770      2.14996         0.050115      0.021277     -0.031447
Li	      2.05705      2.07826      4.16411        -0.049434     -0.009560     -0.034978
Li	      4.26089      2.07210      6.33534        -0.015066     -0.027030      0.023586
Li	      4.24349      8.07698      4.32274        -0.043392     -0.025187      0.004825
Li	      2.24610      6.20366      4.26622         0.012995     -0.024060      0.051513
Li	      4.16980      6.26778      6.29207        -0.008239      0.018833     -0.005664
Sc	      0.08929      6.17585      6.27137         0.076395     -0.129761     -0.076554
Sc	      4.27382      0.11980      4.21897        -0.002080     -0.106299      0.247882
Sc	      2.16243      4.02298      2.18827        -0.064211     -0.276841     -0.014990
Sc	      6.31583      4.01421      6.27738         0.150228     -0.025166      0.016287
Mn	      6.43137      6.18115      8.47081        -0.131812      0.190673      0.082122
Co	      4.21101      4.12052      4.17718         0.001545     -0.009869     -0.088085
Co	      8.53109      8.19344      8.47766         0.662169     -0.223046     -0.187882
Ni	      2.10564      0.05710      2.10188        -0.016405     -0.151885     -0.021098
Ni	      2.11195      4.08537      6.27401         0.002182      0.032724      0.092652
O	      2.13206      2.05564      2.12081        -0.018114      0.258733      0.009332
O	      4.25039      4.09881      2.08321        -0.080330      0.021472      0.077531
O	      4.30597      2.17597      4.20492        -0.022623      0.077283      0.021925
O	      6.45824      4.11151      4.19681        -0.054810      0.055594      0.072235
O	      6.41169      2.03410      6.37208        -0.057406      0.069114      0.025384
O	      8.54021      4.08196      6.31568         0.005915      0.077756      0.004336
O	      2.16671      4.07884      4.22115         0.038114     -0.000488     -0.180627
O	      4.28076      5.92984      4.23727        -0.003768     -0.106590      0.005278
O	      4.26540      4.06807      6.54127        -0.126787      0.020316      0.118696
O	      6.42041      6.16280      6.57749         0.004373     -0.259873      0.106197
O	      6.32564      4.21214      8.44898         0.210638      0.070831      0.027048
O	      8.34348      6.22496      8.50488         0.116263      0.493423     -0.076620
O	      2.11526      6.13658      6.41194         0.016128      0.213776     -0.109184
O	      4.31501      8.25044      6.31078        -0.136802     -0.019598      0.039581
O	      4.39649      6.05111      8.46826        -0.023490     -0.335912     -0.169038
O	      6.66172      8.16651      8.41744        -0.479966     -0.141721      0.149862
O	      6.34136      6.20618     10.46610         0.009991      0.029876     -0.110682
O	      8.58085      8.22706     10.28820        -0.090337      0.163541      0.032379
