# total energy = -231.42713128 eV
 
CRYSTAL
PRIMVEC
0.074828 6.217529 6.306095 
6.392699 -0.002304 6.386105 
4.251697 4.186849 0.008915 
PRIMCOORD
36 1
Li	      6.46217      6.21698     12.50234        -0.081796      0.018054      0.040728
Li	      4.33230      8.26204      8.45434        -0.125030     -0.010148     -0.069252
Li	      8.43696      4.11970      4.35735         0.038677      0.015112      0.010921
Li	      6.54074      8.32366     10.60734         0.023680     -0.032341      0.070670
Li	      6.47862      6.20278      4.30978         0.017226     -0.020640     -0.084843
Li	      6.45616      4.11065      6.39783         0.029380     -0.045215      0.100585
Li	     10.63672      8.36410     10.68574        -0.109763     -0.034699     -0.010268
Li	      8.45468      6.29385     10.64280         0.005534      0.056159     -0.047401
Li	      4.24159      4.17776      8.38644         0.060768     -0.004173     -0.026753
Sc	      2.14712      4.10737      2.21564        -0.004141     -0.183294     -0.361682
Sc	      4.44021      4.18302      4.24924         0.168854      0.050360     -0.049703
Sc	      4.30784      2.00951      6.28069         0.139749      0.102873      0.064598
Sc	      6.30517      6.30404      8.61442        -0.014567     -0.218581      0.205705
Mn	     10.63212      6.32924      8.57255         0.105906      0.019515     -0.006932
Co	      8.61724      8.30450     12.61194         0.266147     -0.001651      0.996026
Co	      2.26152      6.20101      8.36976         0.019416      0.382502      0.111593
Co	      4.30773      6.23783      6.31098         0.166167     -0.043863     -0.056224
Cu	      2.12928      4.16572      6.25289        -0.028182     -0.032330      0.046040
O	      8.52729      8.29967     10.87827         0.024099      0.002875     -0.370719
O	      2.18732      1.98735      1.95423         0.070160     -0.075831     -0.236905
O	      4.36105      4.32417      2.12616         0.038277     -0.071086      0.029307
O	      4.30015      2.12539      4.30203        -0.021397      0.043408     -0.008783
O	      6.46380      4.16086      3.99650        -0.052219      0.020184     -0.079916
O	      6.43197      2.09345      6.58208        -0.035688      0.028632     -0.066064
O	      8.53352      4.16376      6.48433        -0.083616     -0.204179     -0.121867
O	      2.25194      4.16577      4.24108        -0.094344      0.018715      0.377339
O	      4.31419      6.27365      4.19523         0.057565     -0.128134      0.020744
O	      4.41851      4.22493      6.31279        -0.011944      0.063597      0.039168
O	      6.32001      6.30389      6.35875        -0.137507      0.166197     -0.047004
O	      6.45002      4.10017      8.55518         0.015491      0.102304     -0.029302
O	      8.44460      6.20776      8.43850        -0.106869      0.020822      0.036465
O	      2.36086      6.18453      6.40802         0.006735      0.138923     -0.149803
O	      4.19228      8.14151      6.31733        -0.321254     -0.139919     -0.105939
O	      4.20197      6.19445      8.23453        -0.008167     -0.029628      0.037186
O	      6.40033      8.43793      8.25758         0.009371      0.020149     -0.204239
O	      6.40725      6.27136     10.53534        -0.026717      0.005332     -0.053475
