# total energy = -232.37252278 eV
 
CRYSTAL
PRIMVEC
-0.023536 6.203735 6.389326 
6.329734 0.006704 6.358195 
4.252648 4.148465 -0.028203 
PRIMCOORD
36 1
Li	      2.15159      0.03486      2.19217        -0.005354     -0.046264     -0.059508
Li	      4.20592      2.03881      2.17879         0.051211     -0.008279     -0.069871
Li	      4.26266      6.19386      2.15656         0.071131      0.056084     -0.060637
Li	      4.31061      4.21424      4.14335        -0.018248     -0.010625     -0.036808
Li	      4.17131      2.18688      6.30084         0.028700     -0.012053     -0.010249
Li	      6.24604      4.16698      6.33383         0.040135     -0.059627      0.064201
Li	      8.39481      6.23510     10.55245        -0.033854     -0.022519      0.068570
Li	      4.30673      6.15527      6.32917        -0.051505      0.014260     -0.049278
Li	      6.24856      6.23995      8.57380        -0.016657     -0.016310      0.030826
Sc	      0.03765      0.08136      0.07325        -0.033771      0.046300     -0.032478
Sc	      8.43403      4.23868      8.45492        -0.114584      0.007565     -0.136969
Sc	     10.45484      8.22200     10.53411         0.218267     -0.007986      0.129234
Sc	      6.44743      8.26413      6.44290        -0.165215      0.262463      0.100112
Mn	      6.39117      6.14951      4.20666        -0.052033     -0.057305      0.204905
Co	      2.12540      2.04227      0.03933         0.061809     -0.001297     -0.388649
Co	      8.43630      4.13159      4.20828         0.014523      0.105219      0.015157
Co	      4.21305      4.11778      8.42526        -0.019813     -0.092898     -0.127375
Ni	      6.27898      8.30129     10.52831        -0.126534      0.037404      0.124973
O	      2.12489      2.09481      2.22428         0.119049      0.098881     -0.525999
O	      4.13820      4.17677      2.04526         0.030519      0.024736      0.119942
O	      4.14578      1.92231      4.24108        -0.092075     -0.085989     -0.002206
O	      6.49203      4.22541      4.20153         0.039078      0.097714      0.000281
O	      6.54002      2.11660      6.24758         0.050114      0.018823      0.070115
O	      8.47857      4.01743      6.28160         0.002421     -0.067604      0.087074
O	      2.05175      4.04609      4.25386         0.034543     -0.024623     -0.094583
O	      4.45652      6.18832      4.22115         0.092789     -0.030527      0.001211
O	      4.19617      4.16134      6.46165         0.081140      0.017668     -0.054591
O	      6.39151      6.25161      6.13371        -0.008499     -0.217422     -0.259610
O	      6.34802      4.16995      8.52657        -0.169310      0.046884      0.048842
O	      8.46385      6.33380      8.52588        -0.011791      0.035987      0.090122
O	      2.08592      6.28478      6.33168         0.015859      0.093041     -0.044102
O	      4.13726      8.27534      6.33845        -0.037340     -0.025075     -0.103616
O	      4.21397      6.01762      8.71320        -0.095132     -0.065737      0.161435
O	      6.32709      8.26075      8.47301         0.166747     -0.005985     -0.007486
O	      6.14439      6.21648     10.66577        -0.051338     -0.110074     -0.060870
O	      8.37958      8.35308     10.59475        -0.014984      0.005171      0.807887
