# total energy = -138.88561700 eV
 
CRYSTAL
PRIMVEC
-2.068389 -0.000150 2.068793 
-4.172720 -6.210861 -2.104240 
6.319469 -4.183834 6.320713 
PRIMCOORD
24 1
Li	     -3.17244     -3.07651      0.96477         0.014893      0.001116      0.019916
Li	     -1.07948     -0.89628      0.99039        -0.002748     -0.015451     -0.003680
Li	      1.12702     -5.33420      3.20433         0.001573      0.016341     -0.001230
Li	      1.15383     -3.15518      5.29422        -0.017369      0.003175     -0.020747
Li	     -3.29652     -5.07700     -1.22729         0.018389     -0.011900      0.017362
Li	     -0.82805     -7.36510      3.31246        -0.020135      0.012001     -0.016181
Mn	     -1.00651     -5.16113      1.06618        -0.005434     -0.002113     -0.008500
Mn	      3.18435     -5.20765      5.25492         0.010414      0.001004      0.010126
Mn	     -3.11909     -7.28131      1.02208         0.017088     -0.010240      0.017758
Ni	      1.08582     -7.30969      5.22617         0.038974      0.028869      0.034514
Ni	     -1.01061     -3.11549      3.13028         0.002368      0.001292      0.005089
Ni	      1.10972     -9.31591      3.18022        -0.035668     -0.036935     -0.034103
O	      1.04701     -2.94742      3.11972         0.094421      0.082979      0.090272
O	     -1.14001     -7.16521      0.93215        -0.017118      0.021344     -0.016777
O	      3.08135     -5.22808      7.22015        -0.029366     -0.070570     -0.026586
O	      1.08321     -9.35892      5.22271         0.105818     -0.115914      0.104315
O	     -1.12283     -5.21366      3.01873        -0.022061     -0.106799     -0.025106
O	      3.16328     -7.13619      5.23367         0.080306      0.040450      0.079861
O	     -0.99965     -3.28435      1.07245        -0.096911     -0.081894     -0.091526
O	     -0.89916     -1.01758      3.24273         0.017705      0.107502      0.011088
O	      1.21965     -5.18720      5.35876         0.020924      0.073758      0.022183
O	      3.20595     -3.27932      5.27649        -0.084694     -0.040841     -0.078328
O	     -2.98391     -5.27740      1.15691         0.011793     -0.014289      0.016058
O	      1.11188     -7.26669      3.18399        -0.103161      0.117114     -0.105778
