# total energy = -235.16888832 eV
 
CRYSTAL
PRIMVEC
0.025086 6.356883 6.494548 
6.267357 0.048031 6.470692 
4.176542 4.220119 0.034436 
PRIMCOORD
36 1
Li	      8.34973      2.25582      6.49494        -0.024943     -0.015981      0.017617
Li	      4.16612      8.47118      8.59648         0.027977     -0.063113     -0.007904
Li	      8.38345     10.54507     10.86819        -0.026524      0.021209     -0.065821
Li	      2.14644      4.14151      2.21699        -0.014653      0.025345      0.024879
Li	      2.10776      2.20717      4.27488        -0.008518      0.022656      0.050159
Li	      6.28536      4.29618      6.41385         0.000527      0.026625     -0.024250
Li	      2.15385      6.30357      4.49047         0.012537      0.020364      0.058924
Li	      2.08650      4.28714      6.38342         0.033624     -0.060450      0.061362
Li	      4.30580      6.27638      6.45076         0.064922      0.000088      0.041457
Sc	      2.05048      0.12489      2.09265         0.274046     -0.132166      0.036944
Sc	      8.29023      6.29675      6.46413        -0.268844      0.061777      0.050439
Sc	      4.32338      8.41400      4.45909         0.093983     -0.082337      0.010307
Sc	      4.24336      4.30493      8.55546        -0.136385      0.097195     -0.065456
Mn	      6.31994      8.47560     10.81337        -0.041758      0.059703     -0.171874
Co	     10.45088     10.57293     12.93900        -0.072020     -0.025395     -0.199713
Co	      4.19310      6.34399      2.34548        -0.139844     -0.023993     -0.028584
Co	      4.15730      4.27382      4.41092        -0.080370     -0.049343      0.131208
Co	      6.21154      6.40980      8.60831         0.071067      0.060124     -0.039841
O	      1.92874      2.13022      2.20207        -0.111641      0.049992      0.070467
O	      4.14492      4.38417      2.45653         0.032343      0.131715     -0.055646
O	      4.29482      2.29809      4.32971         0.155212     -0.029562     -0.050836
O	      6.15720      4.07765      4.36209         0.015402     -0.125948     -0.073588
O	      6.28063      1.97581      6.26423         0.053332     -0.095904     -0.065860
O	      8.51196      4.27080      6.42235         0.230727     -0.072960      0.036520
O	      2.17273      4.23541      4.39651        -0.035540      0.005962     -0.013481
O	      4.19655      6.29015      4.42173         0.008060      0.112323     -0.058380
O	      4.19002      4.21783      6.43426         0.049907     -0.022687     -0.063944
O	      6.28798      6.30706      6.65049         0.217439     -0.023025     -0.148159
O	      6.29838      4.20464      8.72937        -0.036756     -0.197836      0.074255
O	      8.49684      6.42844      8.55892         0.296723     -0.006206      0.100051
O	      1.89564      6.32827      6.56664        -0.235420      0.082232      0.072297
O	      4.17206      8.63417      6.50407        -0.049138      0.127215     -0.014764
O	      4.15604      6.38958      8.61438        -0.283327     -0.116288     -0.001778
O	      6.28868      8.51350      8.85322         0.092903      0.119351      0.101835
O	      6.29595      6.47680     10.66009        -0.025645      0.123288      0.195485
O	      8.29339      8.50616     10.73017        -0.139406     -0.003968      0.015672
