# total energy = -223.00476555 eV
 
CRYSTAL
PRIMVEC
0.072275 6.316790 6.419006 
6.278678 0.031753 6.459897 
4.212973 4.265255 -0.006004 
PRIMCOORD
36 1
Li	      8.27163      2.37554      6.42545         0.053697      0.031166     -0.026769
Li	      6.26236      4.33981      2.18502         0.054455      0.012794      0.012261
Li	      8.31900      4.26972      4.46437        -0.104827      0.025389      0.025891
Li	      8.40476      4.20125      8.49578        -0.033066     -0.021055     -0.069740
Li	      2.14155      2.19508      4.27864         0.070609     -0.053534      0.014113
Li	      8.43048      6.34716      6.47925         0.028402     -0.071015      0.077860
Li	      6.45706      4.07020      6.37036         0.018045      0.000615     -0.033941
Li	      0.16915      4.14219      4.23278         0.158728      0.016052      0.017627
Li	      2.15416      6.30103      4.26374        -0.059832      0.033993     -0.004356
Sc	      6.18870      0.14088      6.43469        -0.153303     -0.013798     -0.084980
Sc	      4.19866      6.34903      6.28080        -0.008750      0.197119      0.183487
Sc	      8.45684      8.49751      8.61368         0.050545      0.040361      0.200643
Sc	      6.44165      6.29894      8.57073         0.010417     -0.089556      0.071305
Mn	      4.12558      2.16197      2.12121        -0.109718     -0.182598     -0.136534
Cu	      6.25855      2.18520      4.31627         0.059738     -0.028640     -0.033245
Ni	      4.28111      6.38824      2.21272         0.055256      0.055556     -0.071378
Ni	      4.23268      4.20959      4.30980        -0.658647      0.477880     -0.208075
Ni	      2.16415      4.20695      6.37588        -0.094191     -0.024372      0.071983
O	      6.13942      4.04350      4.28026         0.674862      0.013208      0.034684
O	      2.26993      2.09900      2.24943         0.054987      0.023985      0.004862
O	      4.17993      4.09421      2.15749         0.008629      0.051241      0.102400
O	      4.35187      2.22575      4.08183        -0.058024     -0.339677      0.032387
O	      6.35155      2.10687      6.70622        -0.003965      0.038178     -0.076327
O	      8.41352      4.34643      6.42015         0.051517      0.010478      0.087919
O	      2.31231      4.20533      4.47646        -0.292069     -0.138349     -0.132476
O	      4.30151      6.23480      4.22860         0.091579      0.008544      0.133078
O	      4.27226      4.28857      6.47051         0.111239     -0.010940     -0.127176
O	      6.33019      6.53471      6.44668         0.007505     -0.134392     -0.035037
O	      6.29170      4.27695      8.75690        -0.019330      0.055749      0.005261
O	      8.44926      6.45873      8.64267        -0.061070     -0.006504      0.010803
O	      2.14029      6.12732      6.37706         0.043445      0.151505     -0.045086
O	      4.19540      8.46254      6.54822        -0.069681     -0.030021     -0.001988
O	      4.28554      6.44212      8.48442        -0.024410      0.033571     -0.048976
O	      6.26387      8.44920      8.32217        -0.030202      0.037263      0.052892
O	      6.32882      6.58730     10.69929         0.012365     -0.129685      0.002878
O	      8.20491      8.56702     10.67263         0.165061     -0.040509     -0.006250
