# total energy = -223.26206697 eV
 
CRYSTAL
PRIMVEC
-0.003049 6.305684 6.374356 
6.268496 0.010428 6.359942 
4.193394 4.208710 -0.007553 
PRIMCOORD
36 1
Li	      8.30424      8.37551     12.68130        -0.023338     -0.035956      0.003159
Li	      6.23360      4.23119      2.18075         0.011012     -0.022959     -0.007917
Li	      8.36606     10.32762     10.69099        -0.015168     -0.013106      0.045343
Li	      6.38451      2.20699      4.25330        -0.034230      0.046954      0.020226
Li	      6.18840      6.19859      4.23271         0.031791      0.016607     -0.014762
Li	      6.24375      4.23519      6.24122         0.029570     -0.001092      0.010257
Li	     10.27511      8.42599     10.68930        -0.042898     -0.035546      0.051255
Li	      2.13468      6.41317      4.32568         0.016884     -0.001822      0.014301
Li	      4.25545      6.29465      6.30277         0.027791     -0.010856     -0.001958
Sc	      4.05456      2.08602      2.11394         0.013090     -0.128780     -0.038916
Sc	      4.24476      2.09321      6.24387         0.006565      0.033079     -0.024150
Sc	      2.05568      4.26796      6.21907         0.049682      0.013633      0.007669
Sc	      6.30124      6.25402      8.66336        -0.031508      0.013486      0.074464
Mn	      8.35077      8.45302      8.56457        -0.020954      0.034268     -0.018101
Cu	      0.07105      2.07009      2.12270        -0.044445      0.067718      0.000616
Cu	      4.24829      4.25661      4.21380        -0.109922     -0.073381      0.026194
Ni	      6.27862      6.34749     12.63784        -0.046050     -0.014948     -0.046689
Ni	      2.11632      4.17394      2.13976        -0.124196      0.078901     -0.092778
O	      6.09639      4.22072      4.25695         0.139354      0.066727     -0.063399
O	      4.21869      6.12141      4.13072         0.014800      0.078512      0.058087
O	      2.04122      2.15515      2.12635         0.171775     -0.121567     -0.028008
O	      4.15104      4.26101      1.88061         0.116994     -0.132834     -0.070353
O	      4.21344      2.31929      4.19695         0.009047     -0.020528     -0.019928
O	      6.29393      2.12765      6.46079         0.000707      0.199837     -0.091477
O	      8.52702      4.25322      6.37760        -0.177083      0.020906     -0.056897
O	      2.30640      4.22370      4.16649        -0.005735      0.006146      0.044768
O	      4.14380      4.23653      6.62145         0.039708      0.018126      0.088081
O	      6.36812      6.34317      6.49082        -0.034566     -0.028055     -0.038386
O	      6.19229      4.14191      8.56634        -0.101288      0.124505      0.048436
O	      8.43194      6.42183      8.46266        -0.078154      0.104591      0.059739
O	      1.90920      6.30765      6.32508         0.207274     -0.019921      0.034916
O	      4.21148      8.37428      6.41632        -0.021316     -0.129811     -0.032089
O	      4.19789      6.24592      8.54967         0.010951     -0.064916      0.032974
O	      6.34298      8.37308      8.46254         0.041587     -0.001992      0.038149
O	      6.25874      6.29773     10.67175         0.000829     -0.027003     -0.086490
O	      8.34418      8.41564     10.39762        -0.028561     -0.038922      0.073664
