# total energy = -230.70336882 eV
 
CRYSTAL
PRIMVEC
0.017404 6.215261 6.333303 
6.406311 -0.001942 6.352550 
4.273332 4.158655 -0.003585 
PRIMCOORD
36 1
Li	      4.33123     10.36326      6.36286        -0.010062      0.006569      0.055352
Li	      8.47157      2.08493      6.37553        -0.097574      0.050579      0.032685
Li	      6.30717      4.23879      2.13541        -0.027277      0.024310      0.003358
Li	      8.50927      4.16335      4.31906        -0.022299     -0.040244      0.035128
Li	      4.35437      6.15586      2.12337         0.018459     -0.009936     -0.029040
Li	      6.42362      6.10868      4.17271        -0.004317     -0.023646     -0.073781
Li	      4.41204      4.12631      4.11901         0.025160     -0.046801     -0.016343
Li	      2.11418      6.21914      4.33501        -0.011421      0.041137     -0.010730
Li	      6.42648      6.21808      8.48387         0.022086     -0.033905      0.010410
Sc	      6.37491      2.04167      4.29477         0.086780     -0.032724     -0.073570
Sc	      2.16050      4.17947      2.13135         0.020816     -0.020066     -0.022023
Sc	      4.28760      6.23516      6.24799        -0.087031      0.029257     -0.078718
Sc	      4.38127      4.14771      8.54663         0.118893     -0.103236      0.051998
Mn	      2.14883      4.15976      6.32939        -0.075492      0.340955      0.062881
Fe	      4.18436      2.05879      2.20620         0.037681      0.014326      0.034623
Co	      8.51849      6.21757      6.30425         0.233053     -0.370331     -0.094411
Cu	      6.39683      4.21544     10.56536        -0.062732     -0.011733      0.041295
Ni	      6.48916      4.12878      6.29231        -0.143123      0.060802     -0.055859
O	      2.24199      2.09752      2.03006        -0.058784      0.019085      0.121142
O	      4.21876      4.05588      2.17238        -0.117599      0.074027      0.007098
O	      4.30295      2.03718      4.24977         0.130792      0.014254     -0.673122
O	      6.37649      4.09331      4.31506         0.012875     -0.115101     -0.186338
O	      6.21435      2.08826      6.33516         0.608635     -0.101729     -0.306190
O	      8.49351      4.31017      6.38920         0.169382     -0.953724      0.065915
O	      2.03013      4.18544      4.35776        -0.137582      0.010074      0.151366
O	      4.26927      6.47459      4.20313         0.017023     -0.071882      0.085265
O	      4.13981      4.09033      6.30793        -0.192078      0.790808     -0.002645
O	      6.50483      6.32368      6.28421        -0.565483      0.294729     -0.065018
O	      6.42036      4.16976      8.31664        -0.053926     -0.018147      0.053237
O	      8.54040      6.25515      8.25271        -0.090242      0.129537      0.975184
O	      2.22662      6.06161      6.33810         0.002523     -0.170144      0.030190
O	      4.49982      8.29724      6.46906         0.097799     -0.008347      0.048750
O	      4.32607      6.23838      8.36076         0.032778     -0.053377     -0.025946
O	      6.44516      8.28727      8.36069         0.012305     -0.035684     -0.088216
O	      6.42066      6.09548     10.57902        -0.001045      0.294463     -0.021688
O	      8.55268      8.28093     10.58952         0.111026      0.025846     -0.042238
