# total energy = -230.60478645 eV
 
CRYSTAL
PRIMVEC
-0.010699 6.419862 6.378476 
6.311875 -0.013786 6.381980 
4.198713 4.273789 -0.000500 
PRIMCOORD
36 1
Li	      2.18624      8.45277      6.38991         0.022074      0.013228      0.052438
Li	      4.18169      8.51817      8.37300        -0.026151     -0.004073     -0.036446
Li	      8.44388     10.61863     10.65717         0.030950     -0.062494      0.011271
Li	      0.07700      2.09753      2.14090         0.071110     -0.024976     -0.012449
Li	      8.34971      4.29604      8.54114        -0.005219      0.034319      0.003451
Li	      4.10550      8.55243      4.39897        -0.099540      0.061628      0.024985
Li	      2.19089      6.33599      4.34162        -0.031425     -0.017290      0.028130
Li	      1.97940      4.39662      6.31647        -0.030915      0.066912     -0.023771
Li	      4.06763      6.60596      6.29163        -0.026161      0.037556      0.027275
Sc	      4.12780     10.54976      6.40510        -0.073765     -0.068519      0.098862
Sc	      6.34509      2.13479      4.30209         0.072630     -0.041793      0.023640
Sc	      2.05081      2.22007      4.22564         0.073932      0.013849     -0.113161
Sc	      4.26177      4.25272      8.51733         0.052442      0.040730     -0.110211
Mn	      6.26537      6.40139      8.51455        -0.091804      0.030031     -0.012802
Fe	      2.10740      6.49783      8.39900         0.101456     -0.103404      0.131640
Co	      6.34428      4.24624      6.37763         0.033071      0.059249      0.065561
Cu	      4.15352      4.32830      4.23199         0.043189      0.155325     -0.058989
Cu	      8.38830      6.37943      6.38180         0.038680     -0.048563      0.165091
O	      2.16589      1.98438      2.19521        -0.046224      0.150165      0.114354
O	      4.30796      4.26637      2.18367        -0.027253     -0.020090     -0.380760
O	      4.20826      2.24245      4.35816        -0.060687      0.188270      0.004921
O	      6.27864      4.27660      4.33182         0.088629      0.005936      0.127638
O	      6.23834      2.23044      6.41451         0.243193      0.205785     -0.028784
O	      8.30559      4.35132      6.37997        -0.113148     -0.162995     -0.011549
O	      2.18882      4.25312      4.26688        -0.237974     -0.072288      0.011891
O	      4.20403      6.32667      4.25124        -0.015532     -0.076833     -0.012430
O	      4.37954      4.16817      6.30878         0.247066     -0.012331      0.209357
O	      6.37482      6.19577      6.36604        -0.265256     -0.219637     -0.031608
O	      6.31756      4.32918      8.31537        -0.042648     -0.019043     -0.050687
O	      8.20036      6.43405      8.39905        -0.058289      0.000442      0.061260
O	      2.03129      6.41833      6.49949        -0.047213     -0.012086     -0.249839
O	      4.17378      8.60742      6.35329         0.008264      0.042205     -0.019853
O	      4.28174      6.37318      8.48615         0.091774     -0.051757      0.011578
O	      6.33471      8.58449      8.53781         0.091777     -0.047897      0.034788
O	      6.26274      6.48831     10.67567         0.015885      0.016779     -0.012335
O	      8.37317      8.55308     10.54343        -0.026917     -0.056342     -0.042455
