# total energy = -227.22586747 eV
 
CRYSTAL
PRIMVEC
0.042576 6.462716 6.307577 
6.334713 0.016893 6.334216 
4.248251 4.352216 -0.014190 
PRIMCOORD
36 1
Li	      8.48238      8.75700     12.43148        -0.134573      0.061627      0.091923
Li	      8.61998     10.65885     10.66611        -0.046492      0.068830      0.042605
Li	      6.61818      8.44925     10.50103         0.068254     -0.005706      0.035236
Li	      8.38848      4.42023      8.39564         0.031655      0.033613     -0.050619
Li	      6.37058      4.34864      6.27415         0.110519     -0.022581     -0.012957
Li	      8.37580      6.72275     10.53538        -0.106752     -0.026618      0.015521
Li	      2.10132      4.31011      6.27167         0.019026      0.022298      0.011499
Li	      8.56718      8.65639      8.49850        -0.017451      0.001036     -0.014868
Li	      6.35924      6.43207      8.64045         0.032888      0.008232     -0.005570
Sc	      2.21789      6.35220      8.35761        -0.027137      0.028250      0.031960
Sc	      4.31255      8.59811      8.29164        -0.011241      0.040659      0.257330
Sc	      4.13267      4.39190      4.25719         0.101534     -0.035076     -0.273314
Sc	      8.47024      6.48595      6.40513         0.221240     -0.457784      0.015539
Mn	      6.35182      6.50784      4.23190         0.181424     -0.228207     -0.295069
Fe	      6.32502      2.34610      8.35508         0.158348     -0.158978      0.077958
Cu	      4.26943      6.45421      6.29513        -0.186935     -0.055321      0.004917
Ni	      6.38013      6.51308     12.59867        -0.078316      0.039990      0.089971
Ni	     10.52651      8.76200     10.54643         0.062050      0.043028     -0.275258
O	      8.66504      8.70132     10.50120        -0.316606     -0.055478     -0.000209
O	      2.06472      2.09161      2.26895        -0.007146      0.041685      0.075433
O	      4.27216      4.32780      2.06171         0.035583      0.006800      0.223054
O	      4.04107      2.25743      4.16957        -0.085111      0.011275      0.025803
O	      6.29375      4.55314      4.16139        -0.080528      0.073884      0.034899
O	      6.35249      2.19787      6.39693        -0.029262      0.134846     -0.036378
O	      8.64337      4.43174      6.32251        -0.544243      0.154198      0.060115
O	      2.06444      4.08849      4.20731         0.018058      0.032293      0.069898
O	      4.36886      6.50092      4.25130        -0.004856      0.109734     -0.186121
O	      4.21609      4.30736      6.24887         0.017801      0.265845      0.166723
O	      6.41755      6.45997      6.11719        -0.215523      0.047254      0.080954
O	      6.40530      4.26791      8.56341        -0.008777      0.155901      0.039687
O	      8.62518      6.50629      8.43169        -0.001594      0.083341      0.055936
O	      1.98354      6.44834      6.30919         0.756330      0.000891     -0.050596
O	      4.25330      8.63241      6.24276         0.053392     -0.303683     -0.088268
O	      4.26910      6.53405      8.23798         0.031854     -0.038028      0.240699
O	      6.30657      8.70039      8.50925        -0.029114     -0.103649     -0.048588
O	      6.40380      6.41407     10.66074         0.031701      0.025598     -0.409846
