# total energy = -227.46798397 eV
 
CRYSTAL
PRIMVEC
0.013914 6.330218 6.464249 
6.409157 0.000433 6.478013 
4.271791 4.227903 0.001135 
PRIMCOORD
36 1
Li	      8.51979      4.27203      4.37972        -0.013331     -0.009117      0.046283
Li	      4.31052      6.27255      2.29996         0.052018     -0.046114      0.103197
Li	      8.48516      4.37773      8.63270         0.025432     -0.010777     -0.063029
Li	      6.41614      6.36097      4.35757        -0.147876      0.031720      0.003726
Li	      4.21854      4.34678      4.45940         0.057459     -0.000643     -0.006955
Li	      8.44922      6.31278      6.45165         0.002977      0.024063     -0.025211
Li	      6.39028      4.42980      6.40154        -0.003218      0.033170     -0.095250
Li	      2.17772      6.22118      4.24415         0.165658      0.001357     -0.058907
Li	      4.37084      6.19650      6.30092         0.041518      0.000062     -0.117703
Sc	      8.59009      8.46109     12.87185        -0.012646      0.082287      0.077934
Sc	      4.23336      2.09118      2.25009        -0.059431      0.077014      0.052523
Sc	      6.34318      2.11951      4.38870        -0.136562      0.015328      0.025252
Sc	      4.36867      4.14971      8.59084         0.094673      0.010052     -0.096213
Mn	     10.67210      4.23776      6.48747        -0.063218     -0.075151      0.090591
Fe	      6.39087      4.28343      2.26096        -0.098772     -0.004813     -0.073830
Cu	      2.21327      4.16044      6.32423         0.064310      0.050430     -0.071471
Cu	      6.47334      6.28352      8.50405        -0.001539      0.005093     -0.035718
Ni	      0.09618      4.17535      4.27532        -0.119016      0.034941     -0.052115
O	      2.10954      4.21882      4.39659         0.016147      0.002105     -0.024833
O	      4.27025      6.44067      4.31633        -0.068133     -0.070406     -0.098118
O	      6.36444      6.45534      6.47482         0.056803     -0.102716      0.131427
O	      2.19234      2.00811      2.05724         0.037479     -0.018592     -0.010673
O	      4.36268      4.19355      1.98217         0.026066     -0.016413      0.063852
O	      4.32145      2.09124      4.23024         0.094893     -0.017653      0.011753
O	      6.39789      4.17959      4.20092        -0.015467     -0.057787      0.054789
O	      6.47847      1.95656      6.44804         0.054252      0.004884     -0.000562
O	      8.74964      4.17822      6.50814         0.007492     -0.020086      0.001964
O	      4.16747      4.20538      6.50765         0.193491      0.029450      0.072527
O	      6.41205      4.33645      8.63698        -0.077406     -0.132747     -0.005169
O	      8.43552      6.35594      8.66364        -0.061271     -0.004981     -0.022332
O	      1.99348      6.27676      6.58566         0.043814      0.029581      0.092348
O	      4.31982      8.60347      6.47490        -0.116100     -0.077452      0.073960
O	      4.21615      6.31958      8.58916        -0.011432      0.020313     -0.008845
O	      6.41985      8.40849      8.67809        -0.024023      0.154547      0.056575
O	      6.43207      6.29678     11.02836         0.008693      0.060630     -0.070600
O	      8.52497      8.45815     10.79430        -0.013736     -0.001579     -0.021169
