# total energy = -228.08506165 eV
 
CRYSTAL
PRIMVEC
-0.035293 6.419021 6.466232 
6.211763 -0.005431 6.435334 
4.133310 4.251119 0.004318 
PRIMCOORD
36 1
Li	      8.27543      2.19664      6.45140        -0.054117      0.050331     -0.004126
Li	      2.10309      0.05833      2.11833         0.025858     -0.007537      0.025041
Li	      4.08054      6.45476     10.68725        -0.053156      0.003864     -0.044839
Li	      8.28399      4.23849      8.50482        -0.042027     -0.007638     -0.091479
Li	      2.17415      2.15799      4.27280        -0.013618      0.003865      0.012019
Li	      4.11322      4.13089      4.40809         0.057944     -0.027243      0.124773
Li	      8.22200      6.41882      6.54387         0.050180      0.036135      0.107073
Li	      4.15443      4.22075      8.57714         0.078190      0.009992     -0.066552
Li	      6.21279      6.37069      8.49172        -0.016210     -0.039751     -0.029642
Sc	      6.17735      2.18918      4.19559         0.033201      0.225879      0.141047
Sc	      0.08588      2.13682      2.15504        -0.042667      0.129148     -0.073329
Sc	      8.21979      6.34852     10.65944         0.027287     -0.013701     -0.109405
Sc	      4.10170      6.42838      6.54688         0.038054     -0.208350      0.213596
Mn	     10.26586      4.23317      6.47788        -0.189989      0.118531      0.066418
Fe	      6.30450      4.41115      6.42511        -0.036607     -0.079875      0.024235
Cu	      4.07064      2.11470      2.19827         0.045392      0.121683      0.085052
Cu	     10.25841      8.54006     10.72135        -0.020696     -0.014403     -0.094627
Cu	      6.21078      8.50543      6.52266         0.352621     -0.157186      0.003903
O	      2.09638      2.11816      2.17712        -0.015317      0.043881      0.013090
O	      4.12762      4.24584      1.95530         0.004494      0.036301     -0.136811
O	      4.15791      2.17370      4.15490        -0.060606     -0.053402     -0.083990
O	      6.20760      4.19496      4.54777        -0.021499     -0.178465     -0.381572
O	      6.19671      1.92775      6.41945         0.012239     -0.011466     -0.060419
O	      8.31798      4.24473      6.42991         0.308493     -0.027486      0.022341
O	      1.91129      4.27583      4.50668        -0.066680     -0.060702      0.058745
O	      4.08562      6.48292      4.31899         0.006855      0.001835      0.009477
O	      4.16779      4.33909      6.46840        -0.137724      0.176544     -0.028393
O	      6.18918      6.36253      6.46543         0.014837      0.318035     -0.015351
O	      6.23035      4.20294      8.32112         0.027916     -0.119338      0.312469
O	      8.32426      6.34328      8.67144        -0.020921     -0.022364      0.056805
O	      1.95218      6.36863      6.43746        -0.066520     -0.050613     -0.019031
O	      4.10747      8.64000      6.61850        -0.147021      0.087234      0.068972
O	      4.09267      6.53627      8.56579        -0.003076     -0.280094     -0.142544
O	      6.11937      8.53413      8.57170        -0.060095      0.036354      0.004517
O	      6.13423      6.37143     10.95098        -0.016384      0.011199      0.003932
O	      8.27034      8.47334     10.70337         0.001368     -0.051200      0.028607
