# total energy = -226.39310454 eV
 
CRYSTAL
PRIMVEC
0.007918 6.373093 6.266710 
6.403477 0.010457 6.263879 
4.272824 4.250624 0.003390 
PRIMCOORD
36 1
Li	      8.49129      4.35907      4.25612        -0.040311      0.044578      0.084881
Li	      6.30710      2.17040      4.26545        -0.058809      0.023901      0.037380
Li	      4.21527      6.40494      2.19138        -0.026979      0.002367     -0.036144
Li	      2.21916      2.13445      4.24708         0.058904     -0.016210      0.033200
Li	      4.26664      4.17886      4.26798         0.029727     -0.067036      0.069413
Li	      4.23499      2.14460      6.16780        -0.012994     -0.005732      0.050071
Li	      6.39677      4.30482      6.17676         0.024316      0.046855      0.050906
Li	      6.46426      4.24288     10.34792        -0.002544      0.002085      0.016894
Li	      8.55617      6.32998     10.36756         0.019064      0.015755      0.020920
Sc	      8.49330      8.55603     12.35354        -0.031575     -0.022770      0.022916
Sc	      6.36529      4.30035      2.28149        -0.051214      0.067332     -0.036064
Sc	      4.30055      2.10988      2.23962        -0.026062      0.043388     -0.091033
Sc	      4.36169      6.31687      6.10419        -0.085243      0.012130     -0.048479
Mn	      8.59893      8.43420      8.42019        -0.031205      0.045362     -0.035995
Fe	      6.36515      6.44043     12.38844         0.028693     -0.234262      0.466689
Ni	      2.13819      4.26477      2.13452         0.012385     -0.015004     -0.028333
Ni	      2.17999      4.22748      6.16066        -0.034759      0.123729     -0.059411
Ni	      6.44263      6.36420      8.40002        -0.051249      0.023355      0.110828
O	      2.22087      2.10868      2.00214         0.020753     -0.040397      0.024285
O	      4.28564      4.19570      1.89942         0.065593     -0.033712      0.085979
O	      4.27313      2.14829      4.14804        -0.018546      0.007101      0.095280
O	      6.38400      4.24987      4.20918         0.003271      0.010688      0.064606
O	      6.46046      1.93767      6.23918        -0.003406      0.241680      0.026262
O	      8.61713      4.21694      6.36405        -0.117732      0.007862     -0.144062
O	      2.15735      4.26679      4.11638        -0.002794     -0.020194      0.026218
O	      4.30919      6.31085      4.15309        -0.009908     -0.002674     -0.049475
O	      4.23629      4.27465      6.45674         0.089709     -0.034639      0.026636
O	      6.36565      6.46241      6.37234         0.085995     -0.096309     -0.109831
O	      6.25538      4.32170      8.35450        -0.041222     -0.097614     -0.004182
O	      8.47705      6.52288      8.39458         0.094877      0.042039     -0.028767
O	      2.14776      6.37618      6.27800         0.041463      0.014974     -0.033618
O	      4.28742      8.53481      6.24730        -0.014543     -0.022291     -0.043130
O	      4.26384      6.31109      8.36503         0.003902     -0.036888      0.000010
O	      6.50017      8.50428      8.33631         0.053443      0.012542      0.074199
O	      6.38144      6.38917     10.58041         0.019149     -0.021848     -0.559780
O	      8.55496      8.51101     10.31971         0.009850     -0.020143     -0.079267
