# total energy = -138.89286466 eV
 
CRYSTAL
PRIMVEC
2.070630 2.070120 0.000177 
6.321806 -4.250011 6.231490 
4.189658 -2.119311 -6.202711 
PRIMCOORD
24 1
Li	      5.40771     -1.26791     -5.08401        -0.016918      0.013135     -0.005901
Li	      3.16480      0.97548     -0.90072         0.007452     -0.005621     -0.011654
Li	      5.14581     -1.00739      3.02357        -0.006887      0.008454      0.023170
Li	      3.19244     -1.12319     -3.07178         0.008648     -0.009238      0.005950
Li	      5.11989     -3.05202      1.07757        -0.001838      0.001794      0.001124
Li	      7.28764     -3.15103     -1.14898        -0.007558      0.008230      0.003959
Mn	      5.23300     -1.09448     -1.02609         0.003617     -0.001860     -0.033951
Mn	      9.42432     -3.21292      1.07486         0.016974     -0.018394     -0.003962
Mn	      9.46502     -5.32442     -1.05026        -0.020018      0.020813     -0.021296
Ni	      7.34078     -1.13186     -3.12206        -0.008404      0.009604      0.041035
Ni	      3.12972     -1.06105      1.08463         0.018988     -0.019455     -0.008639
Ni	      7.35265     -3.21155      3.12204        -0.004998      0.004418     -0.008254
O	      5.22056     -1.08184      0.90975         0.069547     -0.071991     -0.046182
O	      7.19515     -0.98629     -0.99918        -0.036913      0.032318      0.109351
O	      9.41280     -3.20127      2.95481         0.100620     -0.099244     -0.097953
O	      7.30557     -3.16707     -3.07458         0.117348     -0.117559      0.096811
O	      9.32462     -5.18429      0.96230        -0.028875      0.034027     -0.008138
O	      7.23713     -3.09672      5.21772        -0.013158      0.019742      0.083887
O	      5.26074     -1.12203     -2.95399        -0.107820      0.110042      0.066681
O	      3.15621      0.98306      1.03312        -0.090107      0.089023     -0.123930
O	      9.53669     -3.32551     -0.91460         0.018551     -0.022963      0.026277
O	      3.26734     -1.19907     -1.03886         0.023337     -0.023710     -0.076186
O	      5.29319     -3.22274      3.27181        -0.089270      0.091023      0.072477
O	      7.48120     -3.33964      1.01305         0.047682     -0.052585     -0.084675
