# total energy = -250.44308558 eV
 
CRYSTAL
PRIMVEC
0.047035 6.346034 6.522892 
6.335042 0.041889 6.527886 
4.236522 4.247514 0.015196 
PRIMCOORD
36 1
Li	      6.36834      6.42715     12.90867         0.040804      0.025397      0.048090
Li	      8.42422      8.55256     12.90855        -0.024529     -0.021219      0.064735
Li	     10.49315      6.49762      8.72026         0.043373     -0.027508      0.038239
Li	      4.22075      4.29165      4.34196        -0.006718     -0.018002     -0.006162
Li	      6.40339      4.22137      6.49111        -0.046768     -0.038595     -0.074280
Li	      8.44813      6.43189     10.86106         0.003232     -0.012733      0.037019
Li	      2.11320      4.28260      6.36059         0.023135      0.035342     -0.078835
Li	      8.62583      8.42785      8.89811        -0.025280      0.001004      0.028064
Li	      6.38411      6.33674      8.81907        -0.003885      0.012912      0.063362
Sc	      6.34338     10.59534      8.65868        -0.017084      0.050889      0.049910
Sc	      4.33776      8.46955      8.54223        -0.065068      0.062806      0.110210
Sc	      8.38537      4.35081      8.69860         0.069575     -0.032894     -0.032832
Sc	      6.35029      6.36874      4.43004         0.079589     -0.041725     -0.137999
Sc	      4.29068      2.22368      6.61049         0.034701      0.095290     -0.056878
Ti	      4.20477      6.23583      6.51255        -0.144552     -0.434382     -0.066344
Cr	      6.45849      8.46023     10.90578        -0.056796     -0.067147      0.052489
Co	      4.25206      8.48834      4.41621        -0.058213      0.132454     -0.227469
Ni	      8.51153      4.21603      4.52384        -0.034925      0.094047     -0.031543
O	      2.17714      2.11055      2.28432         0.029744     -0.013726     -0.020445
O	      4.23740      4.19175      2.20962         0.014159     -0.037885     -0.015431
O	      4.28978      2.10192      4.34415        -0.003078      0.020592     -0.014482
O	      6.42134      4.21147      4.28404        -0.049651     -0.011296     -0.019807
O	      6.31982      2.17752      6.37077         0.003249     -0.023730     -0.034584
O	      8.41494      4.36083      6.61264         0.017815     -0.004627      0.078377
O	      2.00062      4.20263      4.32413        -0.047043      0.040659     -0.005388
O	      4.27027      6.48056      4.51747        -0.005383     -0.061198      0.148605
O	      4.26976      4.34754      6.42218        -0.044361      0.417609      0.007584
O	      6.31709      6.37253      6.45785        -0.123226      0.016625      0.006101
O	      6.37229      4.25438      8.99764        -0.038192      0.001355      0.123662
O	      8.50789      6.37784      8.63139        -0.054923      0.016764      0.052427
O	      2.29916      6.31347      6.58453         0.220045      0.006424     -0.005592
O	      4.28167      8.37456      6.47371         0.040155     -0.044896     -0.021117
O	      4.24634      6.39265      8.50103         0.020106      0.003005     -0.147170
O	      6.35481      8.52588      8.86316         0.012047     -0.049315      0.025778
O	      6.32924      6.35278     10.90967         0.167439      0.051418      0.066013
O	      8.52872      8.55812     10.91576         0.030508     -0.143713     -0.004308
