# total energy = -252.19142836 eV
 
CRYSTAL
PRIMVEC
0.042579 6.439579 6.266636 
6.546842 -0.005171 6.313988 
4.365266 4.325587 -0.003151 
PRIMCOORD
36 1
Li	      0.24936      6.36679      6.28718        -0.023640     -0.094550      0.031976
Li	      2.28620      8.45434      6.30510         0.128450      0.019546     -0.029939
Li	      6.38692     10.59760      8.32825        -0.004641      0.001847      0.000184
Li	      4.50554      2.32107      2.10871        -0.040569     -0.026637     -0.087594
Li	      6.58894      8.69712     10.37742         0.033365      0.116233      0.039224
Li	      4.47796      6.30873      2.09690         0.048330      0.023385     -0.057717
Li	      4.43245      4.30964      4.08123         0.001567     -0.086035     -0.004381
Li	      6.42165      8.76626      6.33268        -0.167946     -0.042923     -0.065541
Li	      8.62392      8.67614      8.48115         0.076618      0.052822      0.029341
Sc	      2.39846      4.26469      2.05884        -0.089535     -0.112327      0.032759
Sc	      6.49954      6.42193      4.08526         0.010981      0.146750     -0.002308
Sc	      6.57607      4.25158      6.37859        -0.009248      0.021756      0.332622
Sc	      4.19442      6.49146      6.35678         0.199896      0.444253      0.065084
Sc	      6.56158      6.65693      8.44239        -0.110330     -0.297625     -0.234242
Ti	      4.49089      2.24014      6.27850         0.270071      0.155811     -0.082685
Cr	      8.80018     10.71623     10.46904        -0.063634     -0.119762     -0.023612
Co	      6.56297      4.29611     10.47346        -0.078902      0.077163     -0.013077
Co	      8.76663      6.48513     10.50180        -0.007809      0.092382      0.386672
O	      2.18369      2.24189      2.10612        -0.033263     -0.044777      0.064475
O	      4.35220      4.29828      2.11405        -0.071629      0.044058      0.058624
O	      4.27291      2.03403      4.34605         0.062599      0.037956      0.117481
O	      6.71681      4.33053      4.26681        -0.026811     -0.020637     -0.014054
O	      6.34117      2.20511      6.30015        -0.329607     -0.062935     -0.064145
O	      8.67092      4.45008      6.25638         0.033974      0.081345     -0.023932
O	      2.05637      4.30242      4.14642        -0.362230     -0.073636     -0.071802
O	      4.37035      6.38528      4.21742         0.196298      1.164620     -0.110818
O	      4.45410      4.17076      6.25602        -0.003674     -0.184744     -0.047888
O	      6.54742      6.37535      6.29678         0.073243      0.039524     -0.012652
O	      6.64075      4.35840      8.48217         0.055247      0.094671     -0.445479
O	      8.68835      6.43583      8.25310         0.019064      0.038916      0.102406
O	      2.23814      6.44325      6.26052        -0.114027     -0.044694     -0.403127
O	      4.38344      8.52522      6.05407        -0.012374     -0.180036      0.294116
O	      4.47988      6.44355      8.43302         0.003969      0.018105      0.075205
O	      6.57824      8.59547      8.38801         0.027411      0.006783      0.093729
O	      6.53140      6.46474     10.50707        -0.124507     -1.325840      0.099318
O	      8.94076      8.67050     10.48160         0.433293      0.039235     -0.028222
