# total energy = -245.97205577 eV
 
CRYSTAL
PRIMVEC
-0.033920 6.432627 6.511096 
6.373454 0.028794 6.447859 
4.289930 4.287505 -0.021987 
PRIMCOORD
36 1
Li	      6.27761      0.19257      6.33105        -0.018765      0.041013     -0.067640
Li	      8.41905      2.21098      6.41861        -0.081239      0.043202      0.071267
Li	      6.42495      2.13551      4.55152        -0.045978      0.014271      0.057328
Li	      6.41266      2.19382      8.50201         0.035455      0.016590     -0.181292
Li	      2.13693      4.16868      2.11199        -0.017747     -0.019524      0.002094
Li	      6.34807      6.46244      4.27596         0.087161     -0.000813     -0.063853
Li	      4.40154      2.06051      6.41741         0.135370     -0.039363     -0.055281
Li	      6.46848      4.19561      6.44297         0.055522     -0.081067      0.031646
Li	      4.24673      8.48704      4.33364        -0.052629      0.054122     -0.053803
Sc	      2.08407      0.09503      2.09986        -0.033374      0.079889      0.208347
Sc	      4.17669      2.20431      2.13799        -0.031243      0.029965      0.282048
Sc	      4.32832      4.37784      4.38195         0.159744     -0.429722     -0.071473
Sc	      2.01827      4.26182      6.36830         0.038847     -0.017460     -0.049317
Sc	      6.39758      6.39788      8.68094         0.111428     -0.032891      0.199393
Ti	      8.62615      8.48865      8.65122         0.192338     -0.244838      0.346007
Cr	      8.54079      4.34659      4.40809        -0.029811     -0.025917     -0.208404
Cu	      4.24958      6.48984      6.38371         0.027201     -0.052532      0.002286
Ni	      2.13842      6.46421      4.38953        -0.238254      0.076686     -0.118967
O	      6.38214      2.14655      6.49586         0.043341      0.097828      0.018794
O	      2.18642      2.11200      2.11551         0.043323     -0.068090      0.062871
O	      4.34430      4.20844      2.25732         0.031220      0.083225      0.056210
O	      4.27558      2.08452      4.27127        -0.062869      0.255133     -0.124780
O	      6.46790      4.31997      4.22685        -0.230155      0.064327     -0.066571
O	      8.53697      4.32865      6.26069        -0.080950     -0.100239      0.409470
O	      2.19827      4.34728      4.34951         0.028329     -0.056590      0.085787
O	      4.20534      6.37870      4.24425         0.099307      0.200347      0.255733
O	      4.18985      4.34767      6.60298        -0.035102      0.074441     -0.092091
O	      6.23859      6.49241      6.57168         0.020844      0.007795     -0.088480
O	      6.19958      4.35169      8.60516        -0.284719     -0.015306      0.033330
O	      8.45138      6.60737      8.69125        -0.001069      0.285167     -0.067535
O	      2.21951      6.41448      6.48852        -0.050077     -0.009378      0.001873
O	      4.27521      8.52665      6.56164        -0.003579     -0.068505     -0.145149
O	      4.22429      6.40764      8.84461        -0.031147     -0.044208     -0.274992
O	      6.43619      8.59345      8.53258         0.032466      0.027405     -0.118933
O	      6.27327      6.46348     10.75379         0.141326     -0.042054     -0.078929
O	      8.48644      8.67475     10.58290         0.045487     -0.102909     -0.196992
