# total energy = -254.37393939 eV
 
CRYSTAL
PRIMVEC
0.031000 6.289786 6.470770 
6.402149 0.008143 6.493694 
4.261835 4.202244 0.011868 
PRIMCOORD
36 1
Li	      4.23306      4.17014      0.04874         0.014668      0.014879     -0.000635
Li	      8.54403      2.16178      6.46098         0.010786     -0.002019     -0.012883
Li	      6.48879      8.38745     10.82767         0.041452     -0.024817      0.026440
Li	      8.53504      4.21514      8.55288        -0.010616      0.007931     -0.049840
Li	      4.33137      4.19400      4.36044         0.022788      0.011295     -0.001054
Li	      6.40553      4.16695      6.51720         0.016111      0.004140      0.016675
Li	      4.26415      8.38521      4.38935        -0.035884     -0.002132      0.074911
Li	      4.23643      6.21668      6.50885         0.001252     -0.036763      0.011702
Li	      4.28484      4.20319      8.57211         0.011378     -0.005507     -0.054827
Sc	      8.55542     10.36021     10.91889         0.040869     -0.087353      0.064327
Sc	      6.44365      2.17562      8.58123        -0.043128      0.016409     -0.020520
Sc	      4.35954      2.17074      6.44251         0.062225      0.044234      0.039012
Sc	      2.13699      6.30327      4.48559         0.018984      0.002134      0.016028
Sc	      6.40400      6.22489      8.63595         0.042068     -0.041451      0.029971
Ti	      6.33220      6.41179      4.42668        -0.109958      0.213460      0.057149
Cr	      2.19633      6.26497      8.61479        -0.033149      0.022313     -0.049178
Fe	      4.30915      8.48855      8.48389        -0.086225     -0.018550      0.144518
Co	      2.14141      4.19402      6.45918         0.010237      0.046923     -0.047511
O	      2.18786      2.04467      2.26743        -0.015452     -0.024000      0.021892
O	      4.40882      4.18725      2.17140         0.005883      0.016914      0.004722
O	      4.08678      2.08002      4.34776        -0.028910      0.006403     -0.095525
O	      6.42849      4.32645      4.20029         0.031782      0.080527      0.032461
O	      6.36386      2.14890      6.55515        -0.000996     -0.041972     -0.034745
O	      8.55228      4.25145      6.43379        -0.014978      0.009447     -0.003700
O	      2.13455      4.10029      4.24771        -0.042544     -0.263969      0.068444
O	      4.36153      6.30657      4.26888         0.165374     -0.010624      0.001550
O	      4.12669      4.18359      6.46484         0.029412     -0.048054      0.029026
O	      6.40343      6.30325      6.40017         0.006074     -0.037880     -0.139586
O	      6.40410      4.21842      8.59385        -0.003818      0.061775     -0.018467
O	      8.55096      6.28972      8.66135        -0.031554      0.023559     -0.011894
O	      2.18524      6.23559      6.54953        -0.028232      0.030709      0.023643
O	      4.40910      8.39390      6.58848        -0.048632     -0.029469     -0.090861
O	      4.27623      6.37260      8.69520        -0.044190     -0.013136      0.002060
O	      6.33004      8.44578      8.72052         0.072097      0.005116     -0.007017
O	      6.44727      6.27633     10.70811        -0.031369      0.008082     -0.001034
O	      8.55066      8.33241     10.87747         0.006195      0.061446     -0.025254
