# total energy = -251.81374031 eV
 
CRYSTAL
PRIMVEC
0.023917 6.485364 6.377411 
6.361761 0.054726 6.347555 
4.276281 4.338406 0.000833 
PRIMCOORD
36 1
Li	      6.36690      6.51655     12.63547        -0.006937     -0.057709     -0.023149
Li	      8.51614      8.77530     12.63738        -0.021329      0.066801      0.031383
Li	      8.57935     10.75101     10.61680        -0.022511     -0.049258     -0.000532
Li	      6.51961      8.62462     10.69481         0.088416      0.006794      0.012519
Li	     10.59309      6.57578      8.49483        -0.018861      0.026840     -0.008195
Li	      4.24102      4.36894      4.21670         0.004876     -0.037780     -0.000254
Li	     10.52908      8.74758     10.64057         0.003110      0.059697      0.006222
Li	      4.22558      6.54471      6.34237         0.004794      0.071018      0.024599
Li	      8.55422      8.72246      8.56322         0.048785      0.063961      0.013421
Sc	      6.36913      4.35802      2.13168        -0.007526      0.000170      0.019011
Sc	      6.24753      6.53676      4.20532        -0.011538     -0.049872     -0.042590
Sc	      4.34859      2.15014      6.25769        -0.013453     -0.043774     -0.036605
Sc	      6.35788      4.27198      6.34002        -0.018080      0.040467     -0.012247
Sc	      6.32174      6.56124      8.61279        -0.035075      0.074778      0.017766
Ti	      2.07695      4.42881      6.30921        -0.193182      0.062975      0.113609
Cr	      2.17942      4.29266      2.13193        -0.033420     -0.039278      0.007863
Fe	      8.59501      6.75637     10.60030        -0.005979     -0.145698      0.000985
Cu	      4.24489      2.18168      2.18712         0.032361     -0.061187      0.032210
O	      1.99734      2.18812      2.13314        -0.198473      0.029816      0.023158
O	      4.22579      4.17900      2.13461        -0.045090      0.093095     -0.015302
O	      4.15698      2.15773      4.24662        -0.029183     -0.029600      0.056303
O	      6.36650      4.44365      4.21577        -0.023424      0.020872     -0.001832
O	      6.34612      2.28088      6.34296        -0.019874     -0.004622      0.008776
O	      8.48479      4.39080      6.47472        -0.004917      0.007319     -0.007869
O	      2.14869      4.32143      4.28942        -0.021571      0.020090      0.017311
O	      4.20996      6.50950      4.26102         0.025401     -0.002052      0.018190
O	      4.23878      4.25876      6.37142        -0.028780     -0.054408     -0.045102
O	      6.43371      6.58668      6.35372         0.004406      0.027128     -0.034798
O	      6.48580      4.48362      8.41768         0.020529      0.003828      0.009353
O	      8.52240      6.38051      8.51089         0.010082     -0.048314     -0.025211
O	      2.18431      6.34651      6.35297        -0.009699     -0.148088     -0.028619
O	      4.51008      8.65307      6.42349         0.302684      0.022145     -0.047770
O	      4.24890      6.64505      8.50794        -0.017742     -0.116773      0.000559
O	      6.55879      8.71745      8.30102         0.186159      0.008094     -0.140197
O	      6.53722      6.57787     10.57687         0.013646     -0.020554      0.034353
O	      8.55481      8.63012     10.60569         0.041394      0.203077      0.022683
