# total energy = -257.18758602 eV
 
CRYSTAL
PRIMVEC
-0.008019 6.393178 6.361334 
6.374895 -0.019841 6.373280 
4.234311 4.254342 0.002279 
PRIMCOORD
36 1
Li	      4.21002      2.15643      2.24027        -0.024587     -0.020235      0.093156
Li	      4.25102      6.35280     10.56637        -0.013467      0.012697      0.027013
Li	      6.37264      8.54083     10.56363        -0.016143      0.006766      0.045601
Li	      4.22327      6.35905      2.24872        -0.018242     -0.015837     -0.041846
Li	      2.17231      4.20644      2.25660         0.012156     -0.025016     -0.068929
Li	      2.12058      2.23064      4.07903         0.008949      0.006981     -0.041459
Li	      2.16283      6.35353      4.17191        -0.006119     -0.006246     -0.058479
Li	      2.07418      4.28942      6.29829        -0.025222      0.013176     -0.054739
Li	      8.47533      8.48113      8.66515         0.001942      0.002077      0.043959
Sc	      8.49041      8.50627     12.72044        -0.009535      0.004271      0.005720
Sc	      6.34221      4.21779      2.28606         0.064248      0.031441      0.014590
Sc	      6.38691      4.20962      6.40988         0.066969     -0.020791      0.018308
Sc	      4.21826      6.34471      6.30732        -0.008159      0.026918      0.017180
Sc	      6.36561      6.51150      8.62907         0.026338     -0.000680      0.053041
Ti	      4.21281      2.16404      6.33541        -0.036966     -0.024363     -0.175904
Cr	      0.01066      6.37170      6.35770        -0.014069      0.018140     -0.111408
Cr	      6.41754      4.21719     10.52684         0.053571     -0.053282     -0.016502
Co	      4.09473      4.24267      4.16567        -0.000159     -0.026992     -0.044115
O	      2.14506      2.04619      2.02765        -0.051929      0.004419      0.000949
O	      4.26113      4.22147      1.98314         0.006427      0.038319      0.102150
O	      4.19832      2.16533      4.44352         0.002004     -0.033618      0.210608
O	      6.29003      4.22453      4.32264         0.011357      0.008481     -0.032792
O	      6.30810      2.05688      6.34672        -0.067434     -0.009358     -0.023928
O	      8.53578      4.30649      6.33866        -0.000469      0.048209      0.004114
O	      2.07895      4.26312      4.22811         0.008993      0.018380      0.012043
O	      4.23458      6.42792      4.26451         0.027430      0.049789      0.032379
O	      4.29283      4.18502      6.34752        -0.017100     -0.037103      0.021522
O	      6.40728      6.30388      6.43430         0.046248      0.029292     -0.010812
O	      6.38254      4.30315      8.49782        -0.012826     -0.012697     -0.012788
O	      8.42993      6.41925      8.26095        -0.003190     -0.010377     -0.079646
O	      2.08298      6.41198      6.40449        -0.006476     -0.044539     -0.011594
O	      4.22300      8.54637      6.22968         0.034214     -0.012810      0.044564
O	      4.25104      6.40722      8.39343         0.000403     -0.029308      0.005362
O	      6.35082      8.51652      8.54823        -0.005154      0.031801     -0.016656
O	      6.39668      6.27877     10.68425        -0.021895      0.005893      0.030495
O	      8.61660      8.48992     10.66471        -0.012108      0.026201      0.018842
