# total energy = -255.33134928 eV
 
CRYSTAL
PRIMVEC
0.008791 6.602161 6.405933 
6.275043 0.049262 6.364609 
4.201174 4.391592 0.014885 
PRIMCOORD
36 1
Li	      2.17863      8.74303      6.53468        -0.005509      0.009814     -0.045847
Li	      2.27665      6.83325      8.49592        -0.042088     -0.012743     -0.049128
Li	      3.96363      2.01558      2.18099         0.010377     -0.040969      0.018136
Li	      4.15505      6.67293     10.57353         0.017186      0.048916      0.047970
Li	      2.09002      4.26254      2.18901        -0.010386     -0.053489     -0.007500
Li	      2.10158      2.18250      4.09442        -0.026646     -0.000096      0.011967
Li	      8.37434      6.60219      6.42716        -0.003013     -0.004587      0.012994
Li	      4.13084      6.67198      6.51345        -0.000863     -0.036454      0.044576
Li	      8.39929      8.87087      8.59557         0.012178     -0.003646      0.037500
Sc	     10.38152      4.43056      6.45252        -0.008611      0.009861     -0.009197
Sc	      6.36980      8.90117     10.58086         0.057629     -0.070911      0.012111
Sc	      6.36048      4.48277      6.39971         0.017920      0.034921      0.001251
Sc	      6.31520      8.79148      6.46961         0.021381     -0.022549      0.050831
Sc	      6.20898      6.57731      8.56434         0.044736     -0.058270      0.063143
Ti	      4.18184      4.34446      4.19038         0.009993     -0.127453     -0.011612
Cr	      0.04047      2.20890      2.13308        -0.066939      0.053845     -0.019126
Cr	      2.15758      6.60438      4.27616        -0.035965     -0.012134      0.037074
Cu	      4.15573      8.73982      4.28984         0.085524      0.020557      0.007319
O	      1.99789      2.21780      2.13018         0.037043      0.009150     -0.035833
O	      4.18668      4.55488      2.19261        -0.009109     -0.007019      0.037441
O	      4.23505      2.46989      4.16817        -0.038133      0.199942     -0.032049
O	      6.18833      4.37914      4.30004        -0.072001      0.034666     -0.036927
O	      6.26338      2.26817      6.39838        -0.014474      0.006344      0.002157
O	      8.36865      4.48195      6.29314        -0.020550      0.039649     -0.003367
O	      2.15291      4.50697      4.28909         0.074388     -0.009699      0.006843
O	      4.15568      6.43719      4.15872         0.034015     -0.198180     -0.027425
O	      4.20210      4.44332      6.17532        -0.002124     -0.022629     -0.129413
O	      6.31290      6.60471      6.48793        -0.016489     -0.011595     -0.052611
O	      6.28074      4.37895      8.55560         0.007071     -0.025013     -0.149398
O	      8.43357      6.64137      8.63889         0.048745     -0.009026      0.027665
O	      2.06060      6.50620      6.32907         0.014251     -0.035775     -0.020667
O	      4.23430      8.87677      6.27405        -0.060623     -0.009996      0.148577
O	      4.23613      6.60074      8.58994        -0.065940      0.005470      0.004404
O	      6.32608      8.69661      8.52742         0.028821      0.023881     -0.003729
O	      6.37152      6.79384     10.68808         0.047732      0.216560      0.030968
O	      8.44128      8.67951     10.66400        -0.069527      0.058656      0.030901
