# total energy = -138.88746251 eV
 
CRYSTAL
PRIMVEC
2.068367 2.068147 0.000317 
-4.193319 2.125564 6.189837 
4.225349 -4.223643 8.265254 
PRIMCOORD
24 1
Li	     -1.13231      3.19920      5.03486        -0.003285      0.005194      0.020669
Li	      0.90783      1.15840      1.06407        -0.005695      0.005885      0.008067
Li	      1.13849      0.93111      9.38617        -0.009443      0.003867     -0.019418
Li	     -1.15025      1.14879      3.00185         0.008227     -0.004274      0.018378
Li	      3.27270     -1.20404      5.13443         0.004583     -0.002932     -0.007483
Li	      1.12125     -1.12052      7.35195         0.004327     -0.007001     -0.023175
Mn	      1.04480      1.02361      5.12654        -0.018012      0.016657      0.003012
Mn	      3.16937     -3.16915      7.23149         0.000004      0.002133     -0.000007
Mn	     -1.05652      1.05641      7.26045         0.019150     -0.017801     -0.008683
Ni	      3.12628     -1.05745      9.33421         0.025596     -0.026202     -0.042818
Ni	      1.05667     -1.05699      3.09911        -0.001901      0.001601      0.001939
Ni	      1.08641     -1.08616     11.31826        -0.024438      0.025804      0.042550
O	      0.92641     -0.92732      5.20233        -0.009561      0.012248      0.085208
O	      0.92736      1.14010      7.12631        -0.002650      0.009092     -0.003379
O	      3.15174     -3.15100      9.15984         0.076559     -0.081297     -0.035599
O	     -1.07916      1.07882      9.13928         0.109583     -0.108958     -0.055834
O	      3.11965     -1.05152     11.37403         0.097983     -0.094574      0.132122
O	      0.93719     -0.93632     13.44182        -0.031335      0.027189      0.102153
O	     -0.93760      3.00590      7.18555         0.016332     -0.013938     -0.083978
O	      1.06721      1.00132      3.24772        -0.107277      0.106348      0.054573
O	      1.06171      1.00710     11.49311        -0.076724      0.079744      0.035995
O	     -0.93977      0.94141      5.26128        -0.008815     -0.004045      0.008287
O	      3.27661     -1.20821      7.21127         0.029920     -0.027435     -0.101724
O	      1.09248     -1.09194      9.27785        -0.093129      0.092695     -0.130854
