# total energy = -258.83197947 eV
 
CRYSTAL
PRIMVEC
0.001001 6.349250 6.452680 
6.478784 -0.003488 6.457239 
4.307485 4.224316 0.009432 
PRIMCOORD
36 1
Li	      2.19239      6.35944      8.60191         0.032795      0.002409     -0.059840
Li	      4.39290      6.29782     10.69094         0.035801      0.001030     -0.040513
Li	      8.56585      4.31088      8.60148        -0.034004     -0.020041     -0.070040
Li	      4.28115      4.21202      4.33907        -0.007576     -0.003744      0.060623
Li	      8.60617      6.32126      6.51277        -0.021082     -0.020362      0.069416
Li	      6.49617      4.37541     10.63832         0.013754     -0.012968     -0.008176
Li	      8.52615      6.25949     10.73178        -0.034722     -0.034601      0.001401
Li	      8.67614      8.46246      8.68811        -0.009911     -0.010989      0.047224
Li	      6.49450      6.26036      8.70981        -0.008874     -0.004164      0.053002
Sc	      8.65246      8.50862     12.85261        -0.003480     -0.006777     -0.058457
Sc	      4.34615      2.13577      2.17211         0.029127      0.023947      0.070324
Sc	      6.52235      8.45684     10.66377         0.021544     -0.047389     -0.058851
Sc	      2.22144      2.12226      4.26323         0.016314      0.030107     -0.008390
Sc	      4.29214      6.24353      6.52337        -0.015007      0.050844     -0.032812
Ti	     10.57578      6.33525      8.74081        -0.612674     -0.021510      0.165728
Cr	      6.49590      4.22358      6.49977        -0.038945      0.044130     -0.005036
Cr	      2.21160      4.21907      6.46285        -0.009869     -0.024756      0.041590
Fe	      6.44051      6.36424     12.83068        -0.026998      0.002288      0.002524
O	      2.20177      2.11139      2.15531        -0.072822      0.024401     -0.008140
O	      4.31660      4.35760      1.99588         0.021469      0.058247      0.126781
O	      4.33004      2.15714      4.19957        -0.016138     -0.021099     -0.013259
O	      6.44014      4.23389      4.46921         0.023567      0.024434      0.065038
O	      6.51632      2.20894      6.50467        -0.002332      0.088664      0.044421
O	      8.49807      4.20308      6.48818        -0.054799     -0.012169      0.004055
O	      2.17289      4.16218      4.50382        -0.015126      0.003902     -0.005694
O	      4.38275      6.32333      4.16837        -0.019905     -0.029477     -0.131163
O	      4.27982      4.22123      6.48413         0.061195     -0.025841      0.008943
O	      6.42708      6.32476      6.42454         0.045019      0.006262     -0.000359
O	      6.47482      4.06457      8.51359        -0.009130     -0.127724      0.004451
O	      8.76111      6.30834      8.66434         0.609461      0.019572      0.032080
O	      2.21816      6.26898      6.44461         0.054997      0.020929     -0.006113
O	      4.36454      8.41378      6.48343         0.037074     -0.062924     -0.002436
O	      4.32800      6.42324      8.51666         0.022423      0.023145     -0.003435
O	      6.43575      8.48879      8.57975         0.000318      0.016454     -0.069735
O	      6.45225      6.41011     10.84255        -0.005760      0.022241     -0.203132
O	      8.55815      8.46333     10.84926        -0.005704      0.023530     -0.012021
