# total energy = -261.00366022 eV
 
CRYSTAL
PRIMVEC
0.053827 6.549886 6.471274 
6.316399 0.041429 6.484101 
4.237054 4.401296 0.001313 
PRIMCOORD
36 1
Li	      4.31348      8.77453      8.45238         0.003127     -0.031202     -0.009931
Li	      4.24870      6.56034      2.24117         0.011200     -0.019915      0.008629
Li	      6.23688      6.62987      4.50942         0.083580      0.019563     -0.048376
Li	      4.25758      4.49840      4.50847         0.002085      0.016541      0.058584
Li	      6.27859      4.66009      6.44003         0.025950      0.013784      0.018982
Li	      4.36022      8.60596      4.44375         0.003546     -0.016234      0.003729
Li	      6.29984      8.61945      6.53514         0.017367      0.073285      0.022708
Li	      4.51300      6.65899      6.34795        -0.081785      0.068629      0.040663
Li	      6.34880      6.62337      8.42387        -0.016555     -0.003855      0.079377
Sc	      6.26487      4.43422      2.11658        -0.013509      0.061871     -0.021919
Sc	      4.20987      0.06865      4.30788         0.017414     -0.014822     -0.021148
Sc	      6.25378      2.27629      4.34306        -0.024154     -0.020746     -0.036614
Sc	      2.29439      6.49067      4.34356        -0.063562     -0.003821      0.019335
Sc	      4.33922      4.38781      8.50251         0.057239      0.047924      0.044979
Ti	      2.04049      4.21584      2.22591        -0.131920     -0.152048      0.224302
Cr	      4.27197     10.89957      6.47940         0.037243     -0.018176     -0.046283
Cr	      2.18739      8.73913      6.47255        -0.061858     -0.041777     -0.029501
Cr	      8.40006      6.64500      6.52612         0.038343      0.011105     -0.037298
O	      2.10953      2.29681      2.10136        -0.011905      0.147215      0.025681
O	      4.14897      4.38814      2.02035        -0.050792     -0.025367      0.000797
O	      4.22766      2.11919      4.47405        -0.015336      0.003903      0.006728
O	      6.37137      4.35242      4.24316        -0.066298      0.027024      0.050426
O	      6.32803      2.06797      6.44643        -0.033136      0.022801      0.019762
O	      8.49147      4.58355      6.54200        -0.040514      0.023593      0.027085
O	      2.15843      4.42582      4.07034         0.006234     -0.014251     -0.242551
O	      4.22366      6.57098      4.37060         0.032422     -0.011987     -0.035745
O	      4.28751      4.25033      6.53071         0.014291     -0.021142      0.011061
O	      6.45193      6.63673      6.48600        -0.010334      0.015342      0.038408
O	      6.48010      4.40597      8.59040         0.161391     -0.011526     -0.002901
O	      8.47046      6.61606      8.62972         0.001450     -0.027198     -0.036577
O	      2.04289      6.45916      6.47198         0.021808     -0.009656     -0.010401
O	      4.19536      8.90669      6.45349         0.051546     -0.018169     -0.022430
O	      4.21255      6.50983      8.71045         0.042750      0.002126     -0.007752
O	      6.42852      8.89842      8.71497        -0.010320     -0.058215     -0.025007
O	      6.36105      6.67782     10.91012        -0.025671     -0.012187     -0.042155
O	      8.46584      8.79189     10.78545         0.028663     -0.022409     -0.024648
