# total energy = -252.09876232 eV
 
CRYSTAL
PRIMVEC
0.033604 6.427066 6.630949 
6.336993 0.075040 6.587608 
4.251748 4.283991 0.023473 
PRIMCOORD
36 1
Li	      6.23950      0.15718      6.50363        -0.007333      0.008661     -0.078217
Li	      6.43210      4.25290      2.39293         0.009808     -0.023715      0.049230
Li	      8.33628      4.35708      4.51278         0.060181      0.014716      0.021532
Li	      6.39111      2.25617      4.45096        -0.025490     -0.028043      0.021547
Li	      8.47554      4.37799      8.63783        -0.020253      0.009906     -0.068211
Li	      6.46481      6.33150      4.60315        -0.037036      0.002032     -0.005126
Li	      8.37452      6.36798      6.52848         0.036427     -0.015168     -0.015292
Li	      6.53023      4.32075      6.41511        -0.055301     -0.054276     -0.040355
Li	      8.41034      8.64135      8.88134         0.001594     -0.023763     -0.008849
Sc	      4.18926      2.16090      2.35124         0.070714     -0.023499     -0.050622
Sc	     10.54389      6.46144      8.72467        -0.075329      0.090399      0.141321
Sc	      4.40216      4.26500      4.43328        -0.007805      0.074325      0.028614
Sc	      6.40021      8.61367      6.69681        -0.017469      0.089378      0.239316
Sc	      4.33290      6.40173      6.70130        -0.194987     -0.024790     -0.065374
Ti	      6.37184      4.50852     10.89341        -0.013596      0.141185     -0.290502
Mn	      8.43767      2.28118      6.57555         0.065910      0.083379      0.227395
Co	      6.43855      6.47189      8.81168         0.036816      0.002576      0.062935
Co	      8.44151      6.52388     10.97720         0.199176      0.154304     -0.095249
O	      2.11137      2.13624      1.94348        -0.045149     -0.001293     -0.213976
O	      4.20070      4.30498      2.34159        -0.007165      0.025892      0.018625
O	      4.20258      2.22292      4.35020        -0.004594      0.003354      0.036248
O	      6.33824      4.33091      4.41564         0.007136     -0.016974      0.010728
O	      6.54297      2.19742      6.63814         0.021909      0.015860     -0.056636
O	      8.48320      4.14421      6.59933        -0.015461     -0.078332      0.004940
O	      1.96323      4.28478      4.54500         0.057407      0.132753      0.048996
O	      4.26623      6.49153      4.40640         0.026636      0.018850      0.012557
O	      4.17997      4.37459      6.54439         0.031618     -0.003506     -0.049635
O	      6.36506      6.52871      6.63276         0.097204     -0.004122      0.088981
O	      6.31433      4.33164      9.02839         0.028368     -0.100477      0.265906
O	      8.48707      6.49210      8.86039         0.055352     -0.031157      0.052950
O	      2.20243      6.51754      6.52670        -0.030163     -0.025205      0.008699
O	      4.20863      8.56528      6.60355        -0.041550     -0.018866      0.001423
O	      4.31331      6.50740      8.73793        -0.079018     -0.096797     -0.022081
O	      6.31185      8.58894      8.76343         0.060633      0.156199     -0.178802
O	      6.38249      6.38520     11.01257        -0.062053     -0.303548     -0.106030
O	      8.65566      8.64817     11.24395        -0.127139     -0.150238      0.003012
