# total energy = -253.95618199 eV
 
CRYSTAL
PRIMVEC
0.009375 6.554935 6.360000 
6.398108 -0.008887 6.379005 
4.254870 4.372404 0.004553 
PRIMCOORD
36 1
Li	      8.48075      2.23883      6.38498         0.008562     -0.013862      0.003996
Li	      8.47629      4.50685      8.48658         0.015084      0.000765     -0.003562
Li	      6.52344      6.49910      4.36234        -0.034987     -0.021607     -0.007858
Li	      4.20377      4.29348      4.42999        -0.037663      0.044415      0.050077
Li	      8.43691      6.64227      6.42716        -0.039535      0.008175     -0.011042
Li	      6.57057      8.56568      6.38110         0.046897     -0.074677     -0.021828
Li	      4.50533      6.39117      6.37578        -0.037612      0.060523      0.003562
Li	      4.26210      4.26404      8.35621         0.009014      0.025875      0.014927
Li	      6.53171      6.56572      8.32822         0.000825     -0.022917     -0.046033
Sc	      2.16226      6.52624      8.30171        -0.054967     -0.002486     -0.000333
Sc	      4.19548      8.74694      8.35854        -0.016897      0.059335     -0.094726
Sc	      4.29277      6.52208     10.60145         0.063889      0.060222      0.055740
Sc	      6.38109      2.20980      4.27313        -0.060090     -0.074940      0.068207
Sc	      6.35867      2.20998      8.46663         0.023300     -0.081710     -0.180031
Ti	      4.39247      8.61600      4.33813         0.208721     -0.044014      0.175248
Mn	      6.35027      4.49139      6.42411         0.039629     -0.077185      0.001306
Cr	      8.50829      6.57115     10.66388        -0.053385     -0.035046      0.048885
Cu	     10.53655      4.37222      6.41124        -0.049313     -0.007668      0.006025
O	      2.10439      2.07351      2.14768        -0.016548     -0.004710     -0.031922
O	      4.24080      4.38578      2.05301        -0.003045      0.010908      0.105499
O	      4.33493      2.07478      4.14241        -0.033502      0.024377      0.028961
O	      6.47458      4.25000      4.13663        -0.025118      0.039986     -0.014137
O	      6.39095      2.45831      6.38763        -0.050807      0.116402     -0.002154
O	      8.50183      4.38001      6.32532        -0.066795      0.047623      0.035785
O	      2.00258      4.51762      4.34221        -0.185226     -0.036178     -0.018430
O	      4.15724      6.70865      4.26027         0.032957      0.112870     -0.001616
O	      4.42365      4.40117      6.37131        -0.051059      0.027927      0.028323
O	      6.45183      6.38604      6.36320         0.009511      0.090640     -0.022347
O	      6.43618      4.29502      8.74184        -0.015088      0.014718      0.117153
O	      8.57422      6.54996      8.67927        -0.029303      0.002753     -0.056450
O	      1.89023      6.63498      6.28282         0.169630     -0.043703     -0.020349
O	      4.18323      8.66642      6.25353         0.025114     -0.121556     -0.187026
O	      4.20850      6.65931      8.48444         0.032302     -0.041567      0.024009
O	      6.31772      8.80632      8.49695         0.068922     -0.029238      0.016861
O	      6.43271      6.52216     10.68518         0.055344     -0.016992     -0.100160
O	      8.55173      8.69762     10.61946         0.051240      0.002542      0.035440
