# total energy = -253.74029060 eV
 
CRYSTAL
PRIMVEC
0.049128 6.403649 6.315175 
6.531312 0.010619 6.353344 
4.365879 4.306305 -0.004439 
PRIMCOORD
36 1
Li	      4.44091      8.50529      8.44036         0.018367      0.010788     -0.021716
Li	      6.54922      2.26045      8.56038         0.016086     -0.035627      0.014598
Li	      8.58234      4.24282      8.53023        -0.092875     -0.053135     -0.006676
Li	      6.51602      6.49642      4.26305        -0.031429     -0.030731     -0.035398
Li	      8.57645      6.53105      6.44999        -0.007301     -0.028818      0.017601
Li	      6.60026      4.27439     10.43810        -0.038187      0.039810      0.027772
Li	      6.48204      8.32701      6.36135        -0.063940      0.107118      0.000876
Li	      4.58927      6.54818      6.28805        -0.052548      0.012895     -0.031865
Li	      6.55764      6.47479      8.33834         0.000739     -0.002514      0.020501
Sc	      4.32137      4.28793      0.11258         0.037897      0.019746      0.033360
Sc	      2.30729      8.56279      6.37777         0.006328     -0.043629      0.044836
Sc	      2.31192      6.42430      8.45276         0.038750      0.020148     -0.104037
Sc	      6.53609      4.45995      6.44336        -0.004889     -0.021848      0.046780
Sc	      8.72183      6.41612     10.40074        -0.025200     -0.050827      0.032299
Ti	      4.20013      4.28618      4.24853        -0.332262      0.116413      0.087358
Mn	      6.56000      8.56761     10.51442         0.071758     -0.046897     -0.002409
Cr	      4.45680      6.46388     10.51089         0.048228      0.006900     -0.009080
Ni	      4.43761      4.25096      8.39985        -0.031935      0.025742     -0.088954
O	      2.16667      2.08234      2.05892         0.007509      0.017861      0.020068
O	      4.47387      4.24154      2.22856         0.015792      0.006657      0.048101
O	      4.47291      2.13288      4.19565         0.005846      0.043381      0.000427
O	      6.67569      4.31306      4.22717        -0.011427      0.017035      0.055239
O	      6.61645      2.15798      6.15556         0.019463     -0.002513     -0.026620
O	      8.73737      4.29075      6.25512        -0.029126      0.006039     -0.002478
O	      2.34359      4.28936      4.18862         0.301328     -0.004793      0.013828
O	      4.26821      6.18623      4.21538         0.011438     -0.169047      0.008435
O	      4.44841      4.23729      6.16284         0.010422     -0.004288     -0.127678
O	      6.53571      6.41111      6.31517         0.038009      0.010179     -0.024956
O	      6.51557      4.25056      8.43065         0.083952      0.024867     -0.012295
O	      8.74459      6.49650      8.46621        -0.001565     -0.102066     -0.031924
O	      2.10489      6.47645      6.32889         0.019120      0.001900     -0.008569
O	      4.34368      8.65004      6.29245         0.017844      0.001094      0.028776
O	      4.38203      6.36831      8.53909         0.027226      0.097160     -0.012284
O	      6.66762      8.60284      8.59276        -0.063843     -0.016040     -0.008285
O	      6.51809      6.43452     10.61423        -0.006836     -0.011261      0.005680
O	      8.71783      8.63316     10.54134        -0.002740      0.038299      0.048688
