# total energy = -259.09028748 eV
 
CRYSTAL
PRIMVEC
-0.000281 6.506529 6.526396 
6.517631 -0.007891 6.534445 
4.342367 4.340180 -0.002712 
PRIMCOORD
36 1
Li	     10.56181      6.74788      8.81861         0.050912     -0.020403      0.081612
Li	      8.46366      4.62683      8.72771         0.008840     -0.077834     -0.028831
Li	      4.24623      4.41973      4.41848         0.013674      0.005916      0.015857
Li	      8.61355      6.62504      6.87591        -0.057213      0.101855     -0.039827
Li	      6.46987      4.33389      6.83621        -0.013837     -0.035869     -0.062596
Li	      6.56188      4.30125     10.55634         0.035053      0.016875      0.049279
Li	      8.76573      6.39106     10.59887        -0.007529     -0.052776      0.050475
Li	      4.60941      4.03677      8.65677        -0.031709      0.063513      0.018283
Li	      6.79311      6.24225      8.62549        -0.049855      0.026005     -0.018763
Sc	      8.68333      2.19090      6.51885        -0.030536     -0.007776     -0.037818
Sc	      6.48306      4.34087      2.22632         0.003998      0.030989      0.051573
Sc	      6.52598      8.61818     10.82647        -0.021283      0.037981     -0.040128
Sc	      2.14430      2.30604      4.33138         0.078148     -0.051647     -0.042529
Sc	      4.40239      6.36793      6.48211         0.024399     -0.024367      0.042685
Ti	     10.75318      4.40703      6.54238        -0.266822      0.169098     -0.037146
Mn	      4.40506      6.43831     10.76721        -0.001590     -0.021294     -0.034973
Cr	      4.34274      8.69210      8.68127        -0.035294     -0.010015      0.037126
Cr	      2.19957      4.31999      6.50555        -0.025771      0.032386      0.056691
O	      2.30240      2.09890      2.16219         0.058614     -0.017283     -0.042650
O	      4.42037      4.21650      1.97178         0.017680     -0.027403     -0.095729
O	      4.36339      2.13936      4.16362         0.023776      0.044828     -0.026550
O	      6.52347      4.28492      4.27302        -0.033030      0.006963     -0.008324
O	      6.59554      1.98050      6.47968         0.012979     -0.157078     -0.039568
O	      8.88756      4.24435      6.54650         0.234571     -0.001692      0.009023
O	      2.19219      4.30588      4.53214         0.031771     -0.012366      0.043262
O	      4.46038      6.49170      4.44762         0.019558     -0.029755      0.012906
O	      4.17312      4.38536      6.56016         0.014244      0.012958     -0.009883
O	      6.46635      6.64115      6.44473         0.004571      0.018561     -0.007176
O	      6.52451      4.33168      8.67554        -0.006465     -0.003510      0.021781
O	      8.67655      6.50358      8.72852         0.019631     -0.007185      0.015519
O	      2.15004      6.48216      6.60092        -0.033480     -0.024818     -0.028032
O	      4.37057      8.74131      6.62641        -0.008794      0.030098      0.022375
O	      4.25342      6.67613      8.60547        -0.039616      0.061682     -0.025925
O	      6.37321      8.73462      8.67399        -0.025408      0.009730     -0.067405
O	      6.52048      6.54355     11.13771         0.025683     -0.015589      0.174492
O	      8.57815      8.69732     11.02508         0.010131     -0.070778     -0.009087
