# total energy = -252.82933922 eV
 
CRYSTAL
PRIMVEC
0.018197 6.457974 6.358174 
6.575247 0.017579 6.359037 
4.374492 4.296691 0.020471 
PRIMCOORD
36 1
Li	      6.42076      0.03815      6.20558        -0.044249      0.001698     -0.009070
Li	      8.73872      2.29723      6.24696         0.003663     -0.017698      0.018496
Li	      8.72019      4.32234      4.51441        -0.055837      0.050916     -0.090851
Li	      6.56741      2.16715      4.43259        -0.008685     -0.014450      0.055147
Li	      4.47505      2.10894      6.19871         0.065799     -0.003871      0.011349
Li	      6.64150      4.22529      6.25952        -0.032841     -0.009127     -0.006049
Li	     10.92457      8.68088     10.70508        -0.065194      0.071339      0.047140
Li	      2.20733      4.30043      6.26798         0.019209     -0.017246      0.002901
Li	      8.80625      8.57596      8.52708        -0.017521      0.072272      0.014736
Sc	      6.61567     10.69170      8.54057         0.077597     -0.055374     -0.009709
Sc	      4.40940      8.60441      8.47737         0.020090     -0.093756     -0.010546
Sc	      8.74137      4.30899      8.36702         0.008603     -0.029295     -0.003526
Sc	      4.44981      6.48774      6.24337         0.070613      0.021030      0.141754
Sc	      6.60574      6.46619      8.45357        -0.079054      0.066942     -0.061458
Ti	      8.65806      6.60898     10.73047        -0.294686      0.450526      0.122207
Mn	      4.38626      4.24704      4.33429         0.057156     -0.069681      0.028023
Fe	      6.50712      2.31063      8.35119         0.063419     -0.065307      0.141967
Co	      6.63387      6.46322      4.36588         0.179208     -0.075947     -0.040166
O	      2.17553      2.13814      2.19710        -0.069260      0.046689     -0.086049
O	      4.40747      4.29002      2.29205        -0.015881      0.074800     -0.026565
O	      4.36560      2.16236      4.21430        -0.098134     -0.034673     -0.007256
O	      6.50808      4.36450      4.20245        -0.090733     -0.034864     -0.007579
O	      6.56551      2.13780      6.53214        -0.000152      0.000324     -0.127136
O	      8.80959      4.30031      6.42540        -0.036295     -0.000435      0.059733
O	      2.29039      4.35245      4.21288         0.046171      0.058246      0.004196
O	      4.26159      6.44561      4.16665         0.004633      0.066040     -0.082301
O	      4.39393      4.36416      6.19734         0.030046     -0.010462     -0.003252
O	      6.52131      6.48417      6.40591        -0.036779     -0.004231      0.080420
O	      6.64639      4.32220      8.49694         0.014034     -0.037403      0.007420
O	      8.76017      6.43831      8.60714         0.074084      0.022898      0.048875
O	      2.28086      6.43721      6.29941        -0.004566     -0.002474     -0.194825
O	      4.38307      8.53711      6.44156        -0.015086      0.003034     -0.047877
O	      4.39572      6.47492      8.42325        -0.005849     -0.001830     -0.036543
O	      6.49904      8.61572      8.49883        -0.010552     -0.012406     -0.008499
O	      6.77562      6.44474     10.56290         0.293644      0.008894      0.024954
O	      8.76870      8.42846     10.60955        -0.046618     -0.425118      0.049939
