# total energy = -250.00738007 eV
 
CRYSTAL
PRIMVEC
-0.004254 6.499724 6.347577 
6.452308 0.019436 6.323681 
4.308281 4.324148 0.006300 
PRIMCOORD
36 1
Li	      2.07854      0.18918      2.17956        -0.061362      0.064502      0.070293
Li	      4.18119      2.19618      2.19082        -0.021270      0.030802     -0.017009
Li	      4.33298      6.50484      2.37169        -0.007053      0.020493     -0.084133
Li	      2.12566      4.31623      2.28154         0.011576      0.011199      0.009559
Li	      2.13915      2.27776      4.01737         0.039175      0.025650      0.131506
Li	      4.19870      4.35140      4.16490        -0.012813     -0.017048     -0.007994
Li	      8.58383      6.51533      6.36491        -0.002812     -0.054313     -0.024888
Li	      0.06845      4.22042      4.09647         0.013799      0.009182      0.037441
Li	      8.66640      8.55693      8.49253         0.021224     -0.062454     -0.001821
Sc	      2.16554      2.15791      0.14159         0.001052      0.033497     -0.003405
Sc	      4.28534      6.54281     10.40380        -0.046860     -0.010793      0.029143
Sc	      6.40182      8.71030     10.37472        -0.002882      0.055489     -0.047336
Sc	      6.34192      4.30046      6.39480         0.042020     -0.046258     -0.058602
Sc	      4.30336      6.50270      6.27661         0.007262      0.027824      0.026897
Ti	      4.26028      4.33257      0.19074        -0.030712      0.032312      0.601318
Mn	      2.20822      4.30376      6.32708        -0.008835     -0.054713     -0.010877
Fe	      6.60580      6.40780      8.45184        -0.189434      0.072762     -0.026180
Ni	      8.63721      6.49754     10.49882         0.060746      0.014994      0.021609
O	      2.14524      2.17490      2.07791        -0.017560      0.042123      0.017881
O	      4.31121      4.34545      1.96714        -0.021629      0.012918     -0.475788
O	      4.38954      2.09148      4.19569        -0.023845      0.001740      0.005095
O	      6.52955      4.25672      4.27545        -0.010415     -0.003294     -0.043778
O	      6.49062      2.08335      6.27229        -0.013282     -0.024867     -0.044570
O	      8.75040      4.28471      6.28264         0.046948      0.016702     -0.034901
O	      2.17453      4.38465      4.45426        -0.034797     -0.073436     -0.034370
O	      4.23123      6.54897      4.30090         0.095981     -0.042642      0.038127
O	      4.30487      4.40463      6.34471        -0.010206     -0.021108     -0.049407
O	      6.40545      6.44230      6.38254         0.001997     -0.023468     -0.030802
O	      6.49462      4.42496      8.38769        -0.037929     -0.058615      0.012384
O	      8.50965      6.47973      8.48138         0.203882     -0.023565     -0.133487
O	      2.05665      6.53072      6.34851        -0.039655     -0.001097      0.077464
O	      4.31294      8.80090      6.35532         0.052379      0.025389      0.033358
O	      4.40152      6.52250      8.40392         0.076425     -0.007760      0.003754
O	      6.48697      8.54793      8.30906         0.012403     -0.038749     -0.022230
O	      6.45182      6.56395     10.54528        -0.084542      0.009527      0.054090
O	      8.52834      8.70692     10.59343        -0.008977      0.057074     -0.018339
