# total energy = -254.57415841 eV
 
CRYSTAL
PRIMVEC
0.040165 6.320444 6.483680 
6.436890 0.009940 6.514592 
4.296225 4.239047 0.001538 
PRIMCOORD
36 1
Li	      4.40966      8.39827      8.58655        -0.004719      0.000055     -0.047589
Li	      6.51246      8.42848     10.71057        -0.030279     -0.006755     -0.089471
Li	      8.50803      4.21800      8.73752         0.041443      0.014864      0.058418
Li	      6.49036      6.33567      4.37950         0.028758      0.011801      0.042423
Li	      6.42057      4.25722      6.63116         0.030534      0.036094      0.080700
Li	      6.50438      4.21345     10.78454         0.029808      0.022865      0.025601
Li	      6.43198      8.38255      6.59102        -0.017081     -0.011477     -0.020174
Li	      4.33783      4.25297      8.62396         0.020473     -0.000072     -0.007342
Li	      6.40578      6.34115      8.64902         0.012679      0.004728     -0.017415
Sc	      6.50540     10.39772      8.59817        -0.007695      0.034610      0.025388
Sc	      4.32522      6.30708     10.74449         0.022060      0.025831     -0.024445
Sc	      6.52183      2.32319      8.71225         0.008436     -0.034889      0.047074
Sc	      4.32907      4.18604      4.32349        -0.009511     -0.069883     -0.060788
Sc	      8.49353      6.38643      6.58562        -0.044978     -0.038241      0.028516
Ti	      8.47421      6.31555     10.73329        -0.181186     -0.211875     -0.124503
Mn	      4.33019     10.48624      6.54827        -0.032935     -0.020176      0.017997
Fe	      2.16249      2.14032      0.00957        -0.064584      0.063564     -0.015578
Fe	      4.48627      6.34824      6.53140        -0.101484     -0.022280     -0.046907
O	      2.12764      2.11307      2.00033         0.000249     -0.032788      0.060901
O	      4.36440      4.26315      2.24718        -0.036190      0.010564     -0.016062
O	      4.26761      2.09644      4.48677         0.035253     -0.017657      0.017006
O	      6.48753      4.25525      4.20005        -0.003374     -0.005094     -0.016217
O	      6.39203      2.11164      6.62438         0.066407      0.048814      0.007989
O	      8.57440      4.22092      6.39877        -0.051732      0.023336      0.013222
O	      2.21972      4.42709      4.31970        -0.046533      0.226412     -0.008205
O	      4.21095      6.32036      4.36807        -0.017384      0.012898      0.035683
O	      4.33728      4.25501      6.43000        -0.013552     -0.002518      0.022932
O	      6.41463      6.35552      6.47645         0.154546     -0.006939      0.001362
O	      6.48719      4.24530      8.71342        -0.034153      0.035314      0.006394
O	      8.64616      6.39521      8.79874        -0.021001     -0.009504      0.123689
O	      2.24842      6.39225      6.39266         0.047683     -0.033371     -0.017164
O	      4.22869      8.33145      6.48934         0.024431      0.032638     -0.037205
O	      4.31118      6.30876      8.62765         0.001463      0.013947      0.007595
O	      6.46282      8.46485      8.61208         0.007814     -0.023302     -0.001848
O	      6.57206      6.34471     10.84775         0.170828     -0.024675     -0.047155
O	      8.58240      8.40060     10.96559         0.015506     -0.046842     -0.024822
