# total energy = -257.21377326 eV
 
CRYSTAL
PRIMVEC
0.020373 6.458800 6.412142 
6.437379 -0.005735 6.438893 
4.296208 4.328468 -0.008484 
PRIMCOORD
36 1
Li	      4.19285      4.21200      0.12578         0.001874     -0.003856      0.007106
Li	      2.39018      8.66122      6.52507        -0.034677     -0.021701     -0.002673
Li	      2.16293      0.13786      2.13672         0.042894      0.055770     -0.018562
Li	      4.03347      2.27697      2.02512         0.028143      0.020161      0.041254
Li	      2.29396      4.14590      1.98845        -0.021869     -0.019606     -0.056552
Li	      2.14881      2.13793      4.18712        -0.027908     -0.015987     -0.031684
Li	      6.46385      4.33049      6.38620        -0.016495     -0.013268     -0.003229
Li	      4.33510      8.57916      4.39583         0.008192     -0.012061      0.038489
Li	      4.29534      6.57759      6.43587         0.007934      0.035423      0.021541
Sc	      8.53789      4.32809      4.40935         0.058686      0.025633      0.003839
Sc	      6.56694      2.12126      8.42628         0.133144      0.056806     -0.032696
Sc	      4.35375      4.28571      4.23143        -0.061970      0.003236      0.020254
Sc	      6.31472      8.64175      6.45689        -0.094663      0.033806      0.015580
Sc	      6.47674      6.33875      8.49902        -0.055899     -0.004520     -0.005302
Ti	      2.20310      6.49490      4.42934         0.173675     -0.096133      0.291599
Mn	      4.33169      4.30514      8.50427        -0.055076      0.047873      0.024787
V	      6.44926      2.14806      4.36475        -0.048079      0.049319     -0.015983
Co	      8.58134      6.43593      6.40033         0.059463      0.019259     -0.049665
O	      2.08816      2.18251      2.16318        -0.102163      0.003363     -0.022934
O	      4.29971      4.40202      2.18784         0.001993      0.014863     -0.022217
O	      4.40673      2.12655      4.18783        -0.125073      0.039269      0.019819
O	      6.45754      4.25832      4.29554        -0.012727     -0.146144     -0.028280
O	      6.35746      2.15535      6.34236        -0.047132      0.003317      0.035505
O	      8.57467      4.39397      6.40222        -0.022058      0.037288     -0.076573
O	      2.17191      4.54369      4.32342         0.008858      0.063956      0.048990
O	      4.13582      6.45370      4.21091        -0.182267     -0.002970      0.009842
O	      4.22849      4.23081      6.34221         0.014731     -0.032876     -0.012542
O	      6.48420      6.54589      6.44989        -0.023750     -0.027425      0.042667
O	      6.28901      4.28805      8.54552         0.001889      0.005875     -0.025101
O	      8.59949      6.62461      8.67678        -0.050331     -0.008485     -0.015327
O	      2.17766      6.45182      6.27134         0.004454     -0.045592     -0.245912
O	      4.35287      8.61695      6.44918         0.128294      0.006438      0.010247
O	      4.38855      6.25609      8.63661         0.023482     -0.022223     -0.002286
O	      6.63149      8.56270      8.61321         0.058445     -0.081567      0.014301
O	      6.52493      6.50847     10.65321         0.065943      0.156134      0.008119
O	      8.50328      8.56548     10.78055         0.160045     -0.123377      0.013578
