# total energy = -257.76083573 eV
 
CRYSTAL
PRIMVEC
-0.000797 6.424086 6.488193 
6.381870 -0.004193 6.491486 
4.265050 4.295070 -0.012955 
PRIMCOORD
36 1
Li	      8.49876      2.17758      6.51743        -0.028512      0.016005      0.013162
Li	      4.15882      2.10272      2.24849         0.007494      0.017337      0.014959
Li	      4.25543      0.01848      4.32281         0.002844      0.000659     -0.005905
Li	      6.39335      2.15904      8.60696        -0.009836     -0.000072     -0.056426
Li	      8.44471      4.24964      8.66373         0.020905     -0.032182     -0.011273
Li	      2.22534      2.14514      4.15692         0.039974      0.029965     -0.002900
Li	      8.58568      6.36039      6.50479         0.026383      0.005158      0.033210
Li	      8.52584      6.49143     10.66734         0.031951      0.010881     -0.040179
Li	      8.57281      8.49752      8.74164         0.013086     -0.027111      0.008774
Sc	     10.51395      4.33184      6.52791        -0.004919     -0.017388      0.010754
Sc	      6.47125      8.56170     10.74098         0.014482      0.015003      0.039876
Sc	      4.18601      4.25186      4.19727        -0.032268      0.054123     -0.034955
Sc	      6.48459      4.24057      6.52416         0.001870     -0.005300      0.000081
Sc	      6.42062      8.51796      6.48964         0.021797      0.000951     -0.039595
Ti	      4.18176      6.48226      6.48754        -0.020708     -0.020869     -0.097195
Mn	     10.56297      8.52027     10.70235         0.022256     -0.006815     -0.009844
V	      2.17914      0.13345      2.19464        -0.063833     -0.085256      0.018548
Fe	      6.55946      6.38392      8.71415        -0.220007      0.042992      0.002818
O	      2.12053      2.01309      2.18465        -0.022678      0.083211     -0.043380
O	      4.37184      4.30125      2.10773        -0.000155     -0.007318      0.036924
O	      4.32540      2.25213      4.32589        -0.009623     -0.039006     -0.008700
O	      6.36706      4.28742      4.34448         0.002135      0.014772     -0.000323
O	      6.37545      2.13164      6.43134         0.021142      0.004277      0.010563
O	      8.52549      4.29136      6.50963        -0.023623     -0.010076     -0.032937
O	      2.15212      4.25122      4.43291         0.006356     -0.015818      0.011606
O	      4.22892      6.40434      4.55770        -0.012936     -0.031575      0.147025
O	      4.26059      4.45160      6.41343        -0.023257      0.050466      0.027632
O	      6.23063      6.42835      6.62642        -0.042720      0.010028     -0.018993
O	      6.38107      4.37256      8.56866        -0.008374     -0.048927     -0.022316
O	      8.40947      6.43802      8.62425         0.203542     -0.010970     -0.008386
O	      2.19146      6.36800      6.57835         0.057820      0.000785     -0.007888
O	      4.30699      8.50722      6.48300         0.001046     -0.054015      0.053888
O	      4.19714      6.43625      8.47825         0.053453      0.009824     -0.021354
O	      6.40652      8.55975      8.62054        -0.015745     -0.002156      0.019694
O	      6.36507      6.45740     10.80199         0.013787      0.028309      0.005563
O	      8.47371      8.57873     10.79469        -0.023129      0.020107      0.007473
