# total energy = -255.39962264 eV
 
CRYSTAL
PRIMVEC
-0.006578 6.309412 6.638975 
6.406362 -0.018943 6.651662 
4.247682 4.191597 0.010238 
PRIMCOORD
36 1
Li	      2.20806      8.41634      6.68416        -0.033565     -0.005794     -0.016192
Li	      4.20078      2.12791      2.25615         0.092632     -0.005780      0.014056
Li	      2.19901      4.16363      2.42407         0.010926      0.012845      0.012532
Li	      2.11848      2.15310      4.25557         0.086330      0.004243      0.021365
Li	      4.25051      4.20435      4.48889        -0.002044      0.019404      0.020526
Li	      6.29478      4.18551      6.51955         0.003044     -0.015630     -0.003955
Li	      4.34588      8.35913      4.51298        -0.026561     -0.003049     -0.025828
Li	      4.26307      6.33326      6.51011         0.022747      0.004511      0.018201
Li	      4.26028      4.18633      8.75105        -0.052183     -0.017311     -0.029714
Sc	      4.16431      4.12453      0.06578        -0.002755      0.160238      0.027308
Sc	      2.19382      6.31048      8.89057         0.004946     -0.227193     -0.233878
Sc	      0.07417      2.21775      2.25920        -0.143645      0.023823     -0.232633
Sc	      2.17981      6.36751      4.44013        -0.025865      0.063474     -0.021750
Sc	      2.12760      4.12782      6.55070         0.079435     -0.021170      0.278907
Ti	      6.31696      6.17104      8.85771        -0.039268     -0.000732     -0.099178
Mn	      8.45590      4.14740      4.48410         0.135676     -0.034436      0.036372
Mn	      4.25924      2.08894      6.63498         0.121018      0.014611     -0.015457
Co	      6.34635      2.10109      4.39707         0.046170     -0.097672      0.006764
O	      2.09004      2.06252      2.20890         0.052099      0.067146     -0.047705
O	      4.35026      4.25246      2.12294        -0.024467      0.051864      0.074859
O	      4.30401      1.89470      4.43157         0.313469      0.022807     -0.077916
O	      6.46657      4.19777      4.31628        -0.130114     -0.457551      0.206010
O	      6.23696      2.08917      6.74900         0.015849     -0.063041      0.040751
O	      8.54019      4.30696      6.61372        -0.048218     -0.029070      0.025803
O	      2.15070      4.26808      4.52521         0.022469      0.003428     -0.087061
O	      4.19364      6.35017      4.32361         0.017631      0.015790      0.090605
O	      4.23024      4.01252      6.59573         0.007952      0.001511      0.012889
O	      6.48272      6.24260      6.88801        -0.052543      0.015669      0.065270
O	      6.39676      4.31822      8.93227         0.006570      0.068215     -0.052904
O	      8.43136      6.31110      9.00928        -0.010774     -0.051017      0.028583
O	      2.09401      6.26598      6.63588         0.018331     -0.015233     -0.011654
O	      4.29177      8.42821      6.61019        -0.065604     -0.066349      0.033652
O	      4.39832      6.26408      8.87032         0.051601     -0.023414     -0.060489
O	      6.40606      8.31614      8.79151        -0.037026      0.029870     -0.018234
O	      6.35876      6.27485     11.01439        -0.008366      0.494149      0.022141
O	      8.38900      8.49554     11.18485        -0.405898      0.060845     -0.002045
