# total energy = -260.46625019 eV
 
CRYSTAL
PRIMVEC
0.053189 6.319493 6.489383 
6.445922 0.021037 6.521601 
4.318294 4.256253 -0.007126 
PRIMCOORD
36 1
Li	      2.26809      8.36360      6.45441         0.037558      0.021088      0.005098
Li	      4.36797      8.42779      8.54182        -0.002058      0.016194     -0.086041
Li	      6.62981      8.43588     10.82425         0.021671      0.023851     -0.004585
Li	      4.40323      6.34003      2.22950         0.018348     -0.014634      0.012470
Li	      2.12874      2.10644      4.24114         0.039281     -0.021550      0.001068
Li	      2.23557      6.35006      4.40577         0.034931     -0.026077      0.016837
Li	      2.09138      4.30138      6.43370         0.006991     -0.020169     -0.056122
Li	      4.32665      6.35008      6.46098         0.029807     -0.018196     -0.038450
Li	      8.65780      8.46215      8.76513        -0.013906     -0.008258      0.011103
Sc	      2.26834      6.37733      8.57463         0.030352     -0.086358      0.023061
Sc	      2.22984      4.11446      2.23001         0.054873     -0.026803      0.038197
Sc	      4.28946      2.17623      6.49804        -0.016852      0.002443     -0.047729
Sc	      6.45827      4.17661      6.52767        -0.010520     -0.003908     -0.064666
Sc	      4.31817      8.35218      4.38370        -0.017405     -0.028445      0.083198
Ti	      6.45700      6.53597      8.65136        -0.003008      0.421404     -0.097228
Mn	      4.33086      6.34282     10.79957        -0.078246      0.070517      0.015122
Mn	      4.28869      4.29089      4.34007         0.036719     -0.073819     -0.032563
Cr	      0.09921      6.32572      6.47801        -0.037378      0.031301      0.028888
O	      2.18067      2.08030      2.15882        -0.005346      0.080477      0.012806
O	      4.36005      4.24667      2.06227        -0.039553      0.000207     -0.097868
O	      4.24047      2.00770      4.44308        -0.006041     -0.012008      0.015291
O	      6.55068      4.24561      4.35284         0.040653     -0.006795      0.004824
O	      6.38655      2.10787      6.55727         0.002201     -0.011391      0.020029
O	      8.66530      4.28922      6.58066         0.029502      0.009370      0.023919
O	      2.15394      4.19244      4.24976        -0.101016      0.041037      0.053406
O	      4.28748      6.36723      4.32527         0.048235      0.039090     -0.020399
O	      4.43128      4.19937      6.47297        -0.007123      0.030037      0.069347
O	      6.49916      6.32101      6.71612        -0.011252     -0.006415      0.156952
O	      6.54429      4.30599      8.66156        -0.019740      0.079041      0.038995
O	      8.41245      6.33839      8.65309        -0.126760     -0.003382     -0.004844
O	      2.07897      6.34043      6.54697         0.003948      0.000067     -0.050949
O	      4.38308      8.60500      6.40724        -0.039734     -0.007452     -0.014321
O	      4.43791      6.36563      8.63200         0.101173     -0.025843     -0.007921
O	      6.50789      8.39478      8.69387        -0.019662     -0.399409     -0.050467
O	      6.39022      6.36345     10.82105         0.028439     -0.036317      0.012720
O	      8.69823      8.65237     10.80889        -0.009081     -0.028894      0.030820
