# total energy = -252.66022393 eV
 
CRYSTAL
PRIMVEC
0.032522 6.205842 6.628065 
6.416187 0.013017 6.647815 
4.279808 4.153418 0.007252 
PRIMCOORD
36 1
Li	      0.06410      6.21521      6.60617         0.036488     -0.046421      0.026875
Li	      6.44431     10.24625      8.93190        -0.011341      0.016754      0.049855
Li	      8.60107     10.28103     11.04946         0.064451      0.010775     -0.023095
Li	      6.47902      8.39372     10.96476        -0.000180     -0.002452     -0.072510
Li	      2.17386      4.13509      2.23608         0.040258     -0.000932      0.016125
Li	      6.35464      4.16173      6.60906        -0.061248     -0.009520      0.028287
Li	     10.63569      8.35188     11.04600        -0.092106      0.004154     -0.025372
Li	      6.45129      8.33085      6.70607         0.008991      0.024173      0.045081
Li	      4.27767      4.19693      8.87526        -0.004088      0.009716     -0.064993
Sc	      8.58533      8.37677     13.18464        -0.015988      0.019083      0.015983
Sc	      6.43521      2.11088      8.85332         0.038539     -0.048816      0.048944
Sc	      6.44756      6.20147      4.46023        -0.029662      0.073292     -0.017735
Sc	      8.50353      6.19764     11.09904        -0.000467     -0.012840     -0.003095
Sc	      6.40879      6.16991      8.89656         0.007706     -0.020420     -0.022567
Ti	      4.34188      2.00674      6.59057         0.071478     -0.093577     -0.055786
Mn	      4.34779      8.35782      8.79108        -0.088092     -0.003573     -0.023320
Mn	      4.22652      6.14391      6.69034         0.006050     -0.061572     -0.033352
Cu	      4.34672      4.11661      4.41310        -0.023448      0.010857     -0.009521
O	      2.20743      2.09663      2.22634         0.012696     -0.013901      0.036219
O	      4.30027      4.08257      2.16200         0.016659      0.005293     -0.157169
O	      4.27051      2.01619      4.67730         0.023236     -0.066220      0.193302
O	      6.30053      4.18876      4.44742         0.147514     -0.052399      0.011496
O	      6.32950      2.09938      6.75997        -0.068149      0.024729      0.004405
O	      8.61806      4.28719      6.66346        -0.009769      0.145509     -0.015530
O	      2.34746      4.13660      4.40952        -0.054774     -0.046382     -0.036237
O	      4.32563      6.27418      4.39354         0.040272      0.089179     -0.030103
O	      4.28813      4.21027      6.72578        -0.009321     -0.010835      0.185740
O	      6.59018      6.23152      6.64600         0.056227     -0.019715     -0.036137
O	      6.42984      4.12166      8.86230         0.013499      0.020151      0.036982
O	      8.58457      6.25131      8.79038        -0.015964     -0.018239     -0.000953
O	      2.18243      6.25466      6.52135        -0.041773     -0.011637     -0.076115
O	      4.23439      8.09024      6.61777        -0.019996      0.018598     -0.027194
O	      4.32600      6.33447      8.74769         0.009721      0.015685      0.080226
O	      6.25426      8.27454      8.85087         0.012034      0.006062      0.002313
O	      6.51673      6.17088     10.93888        -0.059245      0.017885     -0.020688
O	      8.53606      8.29274     11.18782        -0.000206      0.027557     -0.030363
