# total energy = -253.49425228 eV
 
CRYSTAL
PRIMVEC
0.007562 6.489016 6.492409 
6.282784 0.042403 6.456914 
4.215736 4.329447 0.001256 
PRIMCOORD
36 1
Li	      0.01694      6.47405      6.48237         0.019739     -0.022201      0.007928
Li	      6.25914      4.30470      2.25765        -0.024668     -0.053045      0.043406
Li	      4.26776      8.67207      8.63457        -0.003453     -0.031055     -0.018304
Li	      6.26645      8.69261     10.71798         0.047283      0.021658     -0.021646
Li	      4.25812      6.41815      2.25866         0.019051     -0.028445     -0.055011
Li	      6.18748      6.46283      4.27158        -0.012237     -0.022161     -0.013934
Li	      4.22366      8.60592      4.32930        -0.014712     -0.018335     -0.009134
Li	      4.15432      6.52498      6.44406        -0.015140     -0.008323     -0.022253
Li	      4.13873      4.47310      8.63488        -0.013546      0.076431     -0.025852
Sc	      2.18698      8.56162      6.54662        -0.065643     -0.058280      0.064833
Sc	      4.24002      6.53550     10.72388        -0.052497      0.017909     -0.009489
Sc	      6.20633      4.39292      6.42870         0.009127      0.003154      0.029277
Sc	      8.44130      6.63297     10.73243        -0.042514      0.052355      0.020760
Sc	      6.23564      8.68855      6.52685        -0.045433      0.046641     -0.017731
Ti	      2.20650      4.21055      2.26265         0.185818     -0.288461      0.030408
Mn	      4.26022      2.20321      6.44396         0.012364     -0.015140     -0.001850
Mn	      6.26898      6.53179      8.64739        -0.024935      0.040223     -0.011566
Ni	      4.25696      4.36518      4.28621         0.038372     -0.073742     -0.000028
O	      2.07726      2.34001      2.13872         0.027832      0.217059      0.070839
O	      4.07233      4.32145      2.20163        -0.236222     -0.019415     -0.073578
O	      4.24772      2.16770      4.49383         0.024311     -0.001061      0.001580
O	      6.33580      4.35861      4.33900         0.096262      0.009851      0.002229
O	      6.20686      2.29061      6.55946        -0.011146      0.008867      0.000225
O	      8.37517      4.26885      6.54448         0.013792      0.038069      0.039680
O	      2.10999      4.38623      4.20383        -0.090581     -0.019107     -0.102435
O	      4.15523      6.44020      4.26408         0.007514      0.108076      0.012606
O	      4.17550      4.40269      6.42278         0.019933     -0.011589      0.071515
O	      6.48820      6.54071      6.40989         0.012239     -0.018694      0.011985
O	      6.40323      4.55669      8.55072         0.036147     -0.000230      0.041542
O	      8.31869      6.41365      8.54485        -0.004806      0.013337     -0.022181
O	      2.07421      6.48399      6.42298         0.002605     -0.031598     -0.016144
O	      4.21106      8.60547      6.50538         0.023793     -0.005251     -0.018521
O	      4.30294      6.49179      8.70534         0.047133      0.063916     -0.005971
O	      6.32249      8.50298      8.55210        -0.009328      0.002934      0.061423
O	      6.30767      6.53053     10.79988         0.017907     -0.005851     -0.026704
O	      8.40700      8.70067     10.89334         0.005638      0.011503     -0.037901
