# total energy = -260.01295994 eV
 
CRYSTAL
PRIMVEC
0.009252 6.400212 6.551230 
6.444417 0.018010 6.542254 
4.307516 4.272363 0.000617 
PRIMCOORD
36 1
Li	      6.52761      6.39319     12.97633         0.003216     -0.034805     -0.022969
Li	      6.45005      4.26614      2.18836         0.006557     -0.003676      0.021718
Li	      6.52094      8.41465     10.89442        -0.015339      0.021751     -0.000699
Li	      2.14834      4.27374      2.35154         0.027240      0.009189      0.016520
Li	      4.25991      4.30420      4.31018         0.009095     -0.018466     -0.000446
Li	      0.12162      4.31067      4.35194        -0.017511      0.001483     -0.004295
Li	      8.38314      6.38640     11.02085        -0.048200     -0.021755     -0.043539
Li	      4.15072      6.55582      6.39938         0.011598     -0.010400     -0.135722
Li	      6.46994      6.36358      8.87413        -0.015348     -0.017280     -0.027735
Sc	      4.36014      8.64052      8.66601         0.012874     -0.002734     -0.046182
Sc	      4.46770      6.42702     10.89346        -0.030913     -0.036152     -0.024984
Sc	      4.37110      6.28984      2.29004         0.021108     -0.018439      0.033109
Sc	      6.41829      4.30795      6.54509         0.017751     -0.025353     -0.008023
Sc	      8.52679      8.59524      8.81909        -0.017126      0.031919      0.042422
Ti	      8.61576      6.38216      6.63064        -0.061490     -0.008906      0.120326
Mn	      2.08975      4.39895      6.46374         0.024973      0.017620      0.044717
Mn	      2.13368      2.18391      4.38610         0.038646     -0.011963     -0.019548
V	      2.18231      8.41862      6.49471        -0.036353      0.083261      0.001172
O	      2.15780      2.14964      1.99240        -0.035591      0.043529     -0.009192
O	      4.31369      4.26118      2.21885         0.010409      0.003454      0.009220
O	      4.21306      2.13940      4.43862        -0.015953      0.036917      0.058969
O	      6.51430      4.48298      4.47431        -0.042304      0.011549     -0.049167
O	      6.35543      2.16998      6.54630        -0.125865     -0.039335      0.025538
O	      8.56812      4.34788      6.48740        -0.020004      0.085723      0.042959
O	      2.14657      4.10663      4.38293         0.050838      0.030512     -0.067065
O	      4.49940      6.38747      4.31446         0.006494      0.022599      0.030470
O	      4.32892      4.09276      6.62386         0.049375     -0.065932     -0.002560
O	      6.68281      6.38256      6.60181         0.173213     -0.030166      0.027601
O	      6.33586      4.18731      8.63453         0.021018      0.054244      0.045458
O	      8.67120      6.40543      8.54625        -0.031180     -0.014325     -0.094777
O	      2.16271      6.52196      6.45701         0.005733     -0.067798      0.020847
O	      4.23615      8.53121      6.62959         0.037096     -0.006672     -0.044976
O	      4.30140      6.39453      8.82624        -0.012686      0.000613     -0.014581
O	      6.45037      8.57547      8.68267         0.031306     -0.017607      0.052237
O	      6.43159      6.41960     10.89591        -0.013335      0.005233     -0.009338
O	      8.55446      8.60814     10.94456        -0.019342     -0.007830      0.032518
