# total energy = -138.99233645 eV
 
CRYSTAL
PRIMVEC
2.067413 2.067258 0.000089 
-4.169286 2.101870 6.241807 
4.225845 -4.224980 8.367655 
PRIMCOORD
24 1
Li	     -0.99861      3.07004      5.36170        -0.004801      0.005121     -0.013387
Li	      1.21341      0.85566      1.15899        -0.006727      0.006741     -0.015832
Li	      0.90360      1.16516      9.25240         0.013530     -0.011905     -0.009248
Li	     -0.98396      0.98522      3.15682        -0.013830      0.010879      0.009079
Li	      3.19183     -1.12387      5.06271         0.013576     -0.014496     -0.000953
Li	      0.92744     -0.92624      7.27596         0.016940     -0.015192     -0.013405
Mn	      1.04878      1.02026      5.20079        -0.006917      0.002996      0.003282
Mn	      3.18607     -3.18564      7.30841        -0.011683      0.012586     -0.008746
Mn	      3.14491     -1.07725      9.42948        -0.003624      0.003045     -0.008527
Ni	     -1.05137      1.05272      7.32370         0.010318     -0.007900     -0.033292
Ni	      1.08654     -1.08543      3.10800        -0.005692      0.009264      0.030258
Ni	      1.07214     -1.07190     11.47413        -0.011660      0.012872     -0.002255
O	      0.93559     -0.93359      5.22841        -0.020888      0.016896      0.100494
O	      1.03288      1.03631      7.14107         0.087949     -0.090447     -0.057645
O	      3.05053     -3.05022      9.32273        -0.017043      0.018131     -0.009870
O	     -1.03370      1.03474      9.37601         0.097448     -0.097390      0.103727
O	      3.12387     -1.05622     11.30470         0.114805     -0.115116     -0.088230
O	      0.96712     -0.96681     13.58690        -0.015924      0.013229      0.086990
O	     -1.02507      3.09406      7.29359        -0.108920      0.107043     -0.094542
O	      1.07080      0.99754      3.27608        -0.083384      0.085154      0.051651
O	      1.07722      0.99033     11.67125        -0.101708      0.101192      0.104621
O	     -0.92094      0.92237      5.19248         0.012620     -0.007919     -0.086704
O	      3.27658     -1.20863      7.43105         0.004062     -0.005070      0.036185
O	      1.19907     -1.19906      9.36375         0.041553     -0.039712     -0.083650
