# total energy = -250.65777582 eV
 
CRYSTAL
PRIMVEC
-0.001726 6.411775 6.427398 
6.340934 0.021616 6.403252 
4.270923 4.301723 -0.028564 
PRIMCOORD
36 1
Li	      0.26016      6.30035      6.36148        -0.068250     -0.011723     -0.125526
Li	      2.18230      8.32928      6.44031        -0.007027      0.043494      0.042349
Li	      2.11128      6.44816      8.26428         0.031309      0.029430      0.062113
Li	      8.48207      4.32465      8.49677         0.031278      0.001580     -0.061496
Li	      6.33712      6.47695      4.24867        -0.032372     -0.007792      0.029931
Li	      8.47597      6.45047      6.42406        -0.020240     -0.017009      0.019335
Li	      2.16649      6.41555      4.50978         0.023159      0.002212     -0.111339
Li	      2.00093      4.50836      6.38976         0.009243     -0.033839     -0.031334
Li	      4.03671      6.49594      6.30664         0.102859      0.004719     -0.014645
Sc	      4.16155      8.58174      8.36132        -0.060138     -0.006842      0.014430
Sc	      8.49608      4.34364      4.27353         0.070404      0.003002      0.006923
Sc	      6.40999      2.09848      4.37753        -0.003848     -0.084622     -0.006251
Sc	      0.08173      2.05207      2.09875        -0.052132     -0.042151      0.005867
Sc	      4.12021      4.27898      8.41942         0.026218     -0.034847      0.036917
Ti	      6.43496      4.45778      6.43371         0.231619      0.539235     -0.004025
V	      4.06250      4.33885      4.31352        -0.081984     -0.019924      0.006202
Co	      6.45005      6.42259      8.51967        -0.046831      0.019150      0.031566
Ni	      4.27088      8.54858      4.38954         0.022166     -0.054563     -0.120526
O	      2.11332      6.42395      6.40443         0.031575     -0.019243     -0.028580
O	      2.13129      2.15999      2.15388         0.025185     -0.018330     -0.018077
O	      4.25300      4.28274      2.32998         0.031489     -0.020096      0.011030
O	      4.29905      2.20880      4.22492         0.013011      0.023161      0.016357
O	      6.31527      4.24871      4.44205        -0.022627      0.003746      0.061828
O	      6.35220      2.27023      6.41313         0.023364      0.048585     -0.007041
O	      8.31624      4.36345      6.32467        -0.242726      0.010198      0.042943
O	      2.29478      4.24867      4.33844         0.026111     -0.017380     -0.009134
O	      4.28733      6.30665      4.20837        -0.036983      0.021357      0.031638
O	      4.34675      4.30819      6.32727         0.076714     -0.027788      0.009383
O	      6.37955      6.30756      6.45855         0.015914     -0.500321     -0.036068
O	      6.31742      4.24551      8.47856        -0.010440      0.026020     -0.030081
O	      8.51278      6.51938      8.48210         0.096887      0.046267     -0.007634
O	      4.26114      8.58436      6.37463        -0.023936      0.027079      0.075394
O	      4.27418      6.44266      8.62622        -0.069516     -0.005666      0.019150
O	      6.36254      8.57927      8.62699        -0.029614     -0.004891     -0.009437
O	      6.31013      6.41079     10.67066        -0.029073      0.070821      0.064741
O	      8.49534      8.66642     10.55913        -0.050767      0.006972      0.033096
