# total energy = -251.84023916 eV
 
CRYSTAL
PRIMVEC
0.015527 6.488170 6.402737 
6.510619 -0.001672 6.419539 
4.343449 4.339797 -0.004078 
PRIMCOORD
36 1
Li	      6.45212      0.17319      6.37129         0.014470      0.025536     -0.029063
Li	      8.53829      2.21575      6.38305        -0.013845     -0.009548     -0.017796
Li	      6.45214      4.37803      2.24575        -0.018449     -0.011925     -0.053797
Li	      4.29790      2.22248      2.22473         0.001289      0.006455     -0.052194
Li	      6.42534      2.24796      4.50712         0.075824     -0.082456     -0.045462
Li	      2.28045      2.06084      4.22923         0.013973     -0.037143      0.014421
Li	      4.50536      4.16383      4.24033         0.049192     -0.050516     -0.011232
Li	      4.53881      2.11860      6.26710        -0.011439     -0.006396      0.052850
Li	      6.53167      4.16104      6.25140        -0.003457     -0.011848      0.057497
Sc	      0.09779      2.06311      2.01776        -0.075258      0.051058      0.148310
Sc	      2.28662      4.23517      2.03507        -0.034698      0.084387      0.053004
Sc	      4.31509      8.73500      4.37655        -0.007110      0.054395      0.018242
Sc	      8.64187      8.69330      8.56474         0.005921     -0.204425      0.051512
Sc	      6.48817      6.54871      8.54659         0.155345     -0.012200      0.134689
Ti	      4.32787      6.46119      6.33572        -0.223513      0.071798     -0.230678
V	      2.19798      4.31990      6.34471        -0.047140      0.243624     -0.017514
Co	      8.43951      4.57938      4.50890        -0.005163      0.064853      0.093929
Co	      8.65531      6.53479     10.74133         0.036747     -0.158453     -0.038313
O	      2.10632      2.23889      2.16345         0.062269     -0.010011      0.030006
O	      4.29055      4.38401      2.16913         0.045325     -0.053845      0.018924
O	      4.37631      2.03264      4.28163         0.000521     -0.050068     -0.023815
O	      6.65420      4.29342      4.26520         0.057605     -0.014328     -0.020938
O	      6.51422      2.16424      6.48835         0.007216      0.014773      0.029607
O	      8.68738      4.33783      6.43055         0.000956      0.010218     -0.122152
O	      2.11028      4.39137      4.31614         0.010965      0.441412     -0.098099
O	      4.30795      6.56661      4.37383         0.029051      0.036050      0.098792
O	      4.32088      4.47788      6.41014         0.036958      0.060119     -0.038542
O	      6.35185      6.62355      6.42982        -0.027760     -0.102371     -0.065611
O	      6.50710      4.33903      8.62890        -0.006130      0.028813     -0.014623
O	      8.66936      6.51669      8.57001        -0.034392      0.029640      0.046114
O	      2.34116      6.37497      6.39685         0.150114     -0.029513     -0.090568
O	      4.41812      8.47276      6.39408         0.010141     -0.081913      0.029229
O	      4.42272      6.41073      8.36784        -0.035686      0.012313     -0.040188
O	      6.60365      8.58523      8.37276         0.003727     -0.006332      0.056699
O	      6.52325      6.45113     10.64324        -0.063203      0.027696     -0.054736
O	      8.75678      8.66560     10.62811        -0.160367     -0.329849      0.131494
