# total energy = -258.75891747 eV
 
CRYSTAL
PRIMVEC
-0.001685 6.372833 6.556655 
6.377239 -0.007053 6.561721 
4.248599 4.249106 -0.002026 
PRIMCOORD
36 1
Li	      8.41736      2.18942      6.70522         0.003823     -0.017109      0.080631
Li	      4.32806      6.37162     10.91486        -0.007054     -0.026641     -0.025075
Li	      6.28239      2.11356      4.40589         0.007438     -0.023613      0.061040
Li	      6.39266      2.10272      8.71491        -0.013876     -0.043477     -0.032749
Li	      8.52540      4.18999      8.64372         0.021756      0.058437     -0.037057
Li	      4.28549      4.18895      4.26482         0.011051      0.002316     -0.074514
Li	      8.50277      6.36050      6.56468         0.006495     -0.029353      0.036716
Li	      6.34301      4.30069     10.81804        -0.033721     -0.001572     -0.047956
Li	      6.38042      6.36432      8.85063        -0.044654     -0.029593      0.027769
Sc	      6.26337      0.08193      6.53401         0.013272     -0.051091      0.146559
Sc	      2.13876      2.14281      4.26952         0.053681      0.124460      0.191107
Sc	      6.46419      4.13309      6.51302         0.012577     -0.001708     -0.073951
Sc	      8.46505      6.30505     10.85671        -0.003951      0.093603     -0.005053
Sc	      4.23776      6.41057      6.54202        -0.064212      0.022027      0.183113
Ti	      8.56818      8.44109      8.84715         0.067957      0.091591      0.258909
V	      4.28520      2.13785      2.26923         0.041866      0.002961     -0.005998
Cr	      6.42062      8.45843      6.56730        -0.006036      0.015573      0.033540
Co	      6.34266      4.26141      2.31761         0.214222     -0.115855     -0.069723
O	      2.17131      2.12777      2.22148        -0.113905     -0.369457      0.050921
O	      4.29190      4.13800      2.11844        -0.474773     -0.011709     -0.055854
O	      4.23091      2.11831      4.22054        -0.057291     -0.001162      0.029513
O	      6.33593      4.28649      4.42735         0.031520      0.096602     -0.132173
O	      6.38522      2.11517      6.57690        -0.015575      0.066727     -0.002932
O	      8.48451      4.23147      6.59342        -0.051119     -0.008802      0.020445
O	      2.13873      4.23738      4.52131         0.003231     -0.000117      0.035006
O	      4.22743      6.39754      4.47090         0.027054      0.030430     -0.003692
O	      4.21076      4.28678      6.70070        -0.016126     -0.017194     -0.009300
O	      6.34689      6.41383      6.47662         0.036936      0.004017     -0.071123
O	      6.19928      4.29825      8.64916        -0.058004     -0.056478     -0.024443
O	      8.48343      6.52948      8.80558         0.022027      0.077131      0.016796
O	      2.12925      6.28132      6.51045        -0.008574     -0.029825      0.007857
O	      4.37684      8.48520      6.73063         0.025991     -0.005728     -0.082567
O	      4.20839      6.38224      8.69096         0.348786     -0.072697     -0.061173
O	      6.45301      8.50295      8.60567        -0.032241      0.276040     -0.025958
O	      6.42653      6.32996     11.03790         0.056102      0.006618     -0.023733
O	      8.50188      8.46042     10.70980        -0.004677     -0.055351     -0.314899
