# total energy = -255.40949011 eV
 
CRYSTAL
PRIMVEC
0.002303 6.377391 6.497884 
6.424503 0.008147 6.492287 
4.279585 4.244401 0.008627 
PRIMCOORD
36 1
Li	      2.25160      8.46884      6.58173         0.050713     -0.017605      0.009459
Li	      2.21401      6.45922      8.51173         0.014334     -0.025125     -0.123416
Li	      4.19597      8.38242      8.59336        -0.027682     -0.018546     -0.042613
Li	      4.39626      6.30813     10.72879         0.066877     -0.028137     -0.023842
Li	      8.62369      4.24600      8.59251         0.052456     -0.011890     -0.073508
Li	      8.58755      6.36822      6.58821         0.033048     -0.024060      0.005734
Li	     10.59043      8.61506     10.95905        -0.090546      0.094431      0.184246
Li	      4.22087      6.43817      6.64254        -0.026561      0.031576      0.036633
Li	      6.33906      6.39858      8.70867        -0.040957      0.012422      0.025253
Sc	      6.34179      2.07331      4.30916         0.074098     -0.200873     -0.003754
Sc	      2.17884      2.11867      4.21358         0.124407      0.049488      0.155965
Sc	      8.55998      6.38575     10.80133        -0.284144      0.051804      0.222801
Sc	      6.31085      8.47528      6.62237        -0.248026      0.071805     -0.012000
Sc	      4.31139      4.40719      8.62542        -0.132406      0.110081      0.049554
Ti	      6.63433      4.29994      6.55352         0.605441      0.087615     -0.038723
V	      4.30662      6.29081      2.12897         0.049885     -0.191474     -0.155696
Cr	      4.28228      4.24943      4.36750        -0.050862     -0.132603      0.177501
Cu	      4.23868     10.55069      6.53289        -0.065062      0.139721      0.001722
O	      2.03516      2.13970      2.20606        -0.085969     -0.009836      0.012293
O	      4.27355      4.35690      2.35601         0.009375      0.266644      0.003349
O	      4.26690      2.23236      4.30383        -0.065958      0.073516     -0.015233
O	      6.32216      4.24225      4.51232        -0.053506      0.039461      0.055363
O	      6.41496      2.18351      6.46854         0.007130      0.367232      0.141054
O	      8.47409      4.26685      6.48140        -0.618382      0.042400      0.052383
O	      2.23524      4.21991      4.43306         0.098312     -0.029397     -0.024858
O	      4.30013      6.29719      4.28201         0.019673      0.013077     -0.097695
O	      4.29432      4.25382      6.46920        -0.019693      0.007230     -0.041492
O	      6.43615      6.25465      6.43997         0.019199     -0.124685     -0.027562
O	      6.43004      4.19168      8.46540         0.009218     -0.142153     -0.121196
O	      8.71215      6.42582      8.70832         0.112442     -0.011100     -0.006223
O	      2.05717      6.29803      6.44589         0.259915      0.082968     -0.071149
O	      4.28659      8.57575      6.50764         0.035542     -0.457427      0.016719
O	      4.28378      6.37157      8.66686        -0.009647     -0.128092     -0.036347
O	      6.48455      8.49768      8.66902         0.077519     -0.000966      0.001018
O	      6.46836      6.41238     10.75158         0.083051      0.040495     -0.114056
O	      8.49993      8.46010     10.75006         0.016764     -0.027997     -0.121685
