# total energy = -258.29029011 eV
 
CRYSTAL
PRIMVEC
-0.019295 6.497367 6.351702 
6.403121 -0.004776 6.336853 
4.271620 4.324855 -0.005509 
PRIMCOORD
36 1
Li	      4.28995      4.32857      0.02510        -0.004505      0.002258      0.020925
Li	      6.32529     10.69560      8.42992        -0.125778      0.150853      0.107018
Li	      4.41200      8.67836      8.42279        -0.099416      0.071604      0.000210
Li	      6.39986      8.60167     10.50288        -0.021188      0.080641      0.073557
Li	      8.55544      4.32871      8.36889         0.068410     -0.111000      0.061574
Li	      8.57203      6.34460      6.29345        -0.004385     -0.119113     -0.087859
Li	      6.46810      4.34300      6.34816         0.007231      0.063175     -0.131791
Li	      2.08137      6.50299      4.31922        -0.013892     -0.095342      0.052838
Li	      6.35080      8.75380      6.41533        -0.088299     -0.037930     -0.196925
Sc	      8.50771      2.21102      6.38638         0.033104      0.022809      0.260252
Sc	      4.28795      4.19197      4.27403         0.017248      0.066508     -0.268669
Sc	      0.08015      4.39779      4.24110         0.413000     -0.147505      0.380246
Sc	      4.15875      6.45731      6.42902         0.234561      0.291295     -0.470826
Sc	      6.49443      6.60992      8.36825        -0.124375     -0.468752     -0.213454
Ti	     10.56518      6.40950      8.35016         0.803649     -0.575350      0.023442
V	      6.41193      6.46183      4.22885        -0.182281      0.240790     -0.059770
Cr	      4.25761      0.03520      4.22771        -0.240555      0.195091      0.122596
Fe	      8.49679      8.63186      8.41448         0.071469      0.216901      0.007195
O	      1.91153      2.21813      2.16438        -0.157351      0.058784     -0.679948
O	      4.23523      4.50747      2.18609        -0.070073      0.205694     -0.055431
O	      4.20185      2.11372      4.20430         0.220411     -0.055832     -0.048398
O	      6.46225      4.42674      4.19726        -0.075171     -0.653096     -0.010557
O	      6.40097      2.15442      6.50989        -0.129971      0.009129      0.089810
O	      8.54109      4.28679      6.20873         0.015210     -0.062141     -0.005249
O	      2.14584      4.21478      4.25715         0.006237      0.447824     -0.003990
O	      4.29295      6.47652      4.21409        -0.133171      0.053532      0.019828
O	      4.27851      4.38135      6.31002        -0.131593     -0.004591      0.668572
O	      6.33690      6.48783      6.29443         0.020689     -0.070629      0.914514
O	      6.37436      4.24131      8.50205        -0.624994      0.175611     -0.049574
O	      8.61225      6.46084      8.48872        -0.331809      0.632334     -0.053510
O	      2.14870      6.58780      6.32773        -0.045307     -0.003913      0.084239
O	      4.18259      8.60037      6.32269         0.035340     -0.039725      0.026208
O	      4.34394      6.52270      8.48715        -0.091499     -0.495890      0.131652
O	      6.41406      8.61315      8.47309         0.767275      0.011494     -0.158770
O	      6.32488      6.44786     10.50025        -0.004555      0.042805     -0.101947
O	      8.55386      8.80066     10.58735        -0.013670     -0.098319     -0.448007
