# total energy = -252.49207571 eV
 
CRYSTAL
PRIMVEC
-0.005649 6.540636 6.351270 
6.474545 0.017074 6.328406 
4.314552 4.343319 0.013796 
PRIMCOORD
36 1
Li	      4.32298      4.34377      0.12252        -0.007107     -0.061568     -0.056472
Li	      6.17215      4.19817      2.25878        -0.006236     -0.051768     -0.094930
Li	      4.46308      8.86410      8.39887        -0.081703     -0.022976     -0.014162
Li	      4.30908      6.42154      2.06407         0.010991     -0.029608      0.059419
Li	      4.44647      4.26505      4.23902        -0.079743      0.020780     -0.000092
Li	      4.45890      2.48226      6.24670        -0.015504      0.001339     -0.047282
Li	      6.31424      4.24343      6.38421         0.035351      0.052364      0.055291
Li	      6.55784      8.67894      6.45814         0.024905      0.008406      0.004095
Li	      4.29323      4.31319      8.33408         0.016631      0.008180      0.067763
Sc	      2.04596      2.11211      0.14253         0.221927      0.029159     -0.033877
Sc	      8.52948      4.43482      4.22444         0.173544      0.204182      0.052868
Sc	      8.77972      4.44140      8.33666         0.021426     -0.089760     -0.151468
Sc	      0.00495      4.36227      4.23533        -0.182225     -0.186073      0.092113
Sc	      4.29461      6.36617      6.46440         0.015132      0.076134     -0.109751
Ti	      2.16398      6.49286      4.23757         0.254114      0.124636      0.112782
V	      2.21018      2.18253      4.22451        -0.639933     -0.191511      0.062641
Fe	      6.50018      6.62903      8.33859         0.067910     -0.170176     -0.002142
Co	      6.44240      2.20487      4.21906        -0.145165      0.032289      0.106727
O	      2.05534      2.30018      2.21522         0.087049      0.086763     -0.009188
O	      4.27223      4.37759      2.10409        -0.052248     -0.020398      0.030116
O	      4.17490      2.14453      4.24418         0.598885     -0.113975     -0.000131
O	      6.53029      4.44515      4.18000        -0.184134      0.235560      0.074810
O	      6.50186      2.18569      6.22210        -0.126697     -0.004439     -0.183790
O	      8.67929      4.20710      6.28861        -0.018842     -0.026055      0.058507
O	      2.12009      4.50122      4.20876         0.026233     -0.040659     -0.016206
O	      4.23190      6.59189      4.25303        -0.333511      0.040959      0.019599
O	      4.28952      4.40685      6.35072         0.064919      0.069891     -0.023824
O	      6.38617      6.59529      6.28593         0.147928      0.035960      0.046798
O	      6.58534      4.58536      8.48659         0.007178      0.019388     -0.006653
O	      8.61030      6.56509      8.60735        -0.052653     -0.077740      0.105735
O	      2.16251      6.53203      6.19344        -0.002332      0.022745     -0.112572
O	      4.18396      8.59357      6.31449        -0.004211     -0.027504     -0.046640
O	      4.49271      6.49749      8.51111        -0.033938     -0.022295     -0.043872
O	      6.46877      8.58511      8.57847         0.048618      0.160038      0.059636
O	      6.60369      6.51265     10.54966         0.097278      0.038413     -0.065472
O	      8.66322      8.61145     10.60678         0.046164     -0.130681      0.009626
