# total energy = -251.64610814 eV
 
CRYSTAL
PRIMVEC
0.014090 6.385241 6.436901 
6.404757 0.035712 6.415669 
4.301923 4.274148 -0.007708 
PRIMCOORD
36 1
Li	      2.31430      8.49664      6.35847        -0.081852      0.005581      0.011465
Li	      4.29555      8.43533      8.45254         0.013475     -0.025071      0.006542
Li	      8.56275     10.60794     10.66251         0.000187     -0.017398      0.040418
Li	      8.51068      4.29723      8.55403        -0.049943      0.011832     -0.004191
Li	      4.33234      4.30646      4.23865         0.023560      0.033864     -0.042241
Li	      4.24371      8.50271      4.35971         0.015198      0.004842     -0.038418
Li	      6.36138      8.53062      6.48996         0.000843      0.033550     -0.029726
Li	      4.29909      6.53573      6.48787        -0.027518     -0.043126     -0.010155
Li	      4.28978      4.33333      8.56598        -0.009571     -0.042082      0.012551
Sc	      4.25246     10.48875      6.47559        -0.008719      0.193831      0.012495
Sc	      6.45871      8.56521     10.63444        -0.074358      0.052882      0.202245
Sc	      8.50329      6.50816      6.51592         0.222733     -0.032501      0.082079
Sc	      6.39001      4.30860      6.43169         0.022214     -0.205691      0.058441
Sc	      2.29179      6.37792      4.30207         0.050490     -0.052778     -0.078380
Ti	      2.20944      2.31356      4.17650         0.012956      0.220508     -0.359966
V	      6.28614      6.37608      8.60560         0.077996     -0.048255      0.074116
Fe	      2.26176      6.40224      8.46747         0.007352      0.061568      0.056972
Cu	      0.06898      2.19619      2.15533        -0.018020     -0.012210     -0.079966
O	      2.30090      2.06769      2.30958         0.074065      0.004014      0.235005
O	      4.52405      4.46357      2.08275        -0.051863     -0.201302     -0.000192
O	      4.15438      2.16128      4.38390        -0.042948     -0.004108      0.012412
O	      6.46117      4.30168      4.24306        -0.001332     -0.010965     -0.007579
O	      6.33880      2.18096      6.42271        -0.023660      0.010093     -0.209685
O	      8.55334      4.34919      6.47775         0.016867      0.010933     -0.021810
O	      2.18315      4.16078      4.22797         0.038904     -0.199243      0.015137
O	      4.40897      6.42299      4.16367         0.032522      0.020250      0.217329
O	      4.36400      4.22456      6.42868        -0.025971      0.050810      0.008472
O	      6.41629      6.40132      6.35591        -0.051574      0.052965      0.005455
O	      6.38306      4.32532      8.51628        -0.018586      0.257173     -0.018901
O	      8.32733      6.39353      8.61611        -0.213832      0.017286     -0.012871
O	      2.14695      6.35778      6.45077        -0.023451      0.015585     -0.035824
O	      4.27777      8.56552      6.43356         0.059161     -0.120844     -0.016004
O	      4.28077      6.37952      8.58641         0.068722     -0.013471     -0.031293
O	      6.36709      8.51150      8.61038        -0.007733     -0.036132     -0.051253
O	      6.45853      6.44696     10.71376        -0.019207     -0.001590     -0.001910
O	      8.47886      8.43634     10.72546         0.012891      0.009200     -0.000771
