# total energy = -252.07056286 eV
 
CRYSTAL
PRIMVEC
0.031369 6.383164 6.454561 
6.402496 0.043446 6.442211 
4.302640 4.281895 -0.005432 
PRIMCOORD
36 1
Li	      8.56587      8.59785     12.75561        -0.002443     -0.000139      0.054329
Li	      8.53356     10.47908     10.78135        -0.050625      0.024613      0.064316
Li	      6.53436      2.28392      4.29513        -0.023863     -0.001196      0.023544
Li	      6.42835      6.37890      4.34926         0.031300     -0.034406      0.015975
Li	      6.38539      4.34754      6.34411        -0.013238      0.054510     -0.031083
Li	     10.62480      8.61711     10.74214         0.004311      0.009535     -0.031014
Li	      2.13937      4.29047      6.42859         0.014235     -0.037198     -0.016950
Li	      8.59085      8.64152      8.70423         0.021851     -0.023204     -0.013933
Li	      6.40043      6.37161      8.54207        -0.008046     -0.044677     -0.065367
Sc	      4.40516      8.44605      8.71881         0.026319     -0.041419      0.031880
Sc	      6.45747      2.22369      8.59119        -0.044941      0.090939     -0.037420
Sc	      2.09393      4.25634      2.23532        -0.018558     -0.001184     -0.029421
Sc	      4.15493      2.26678      6.34862        -0.030397      0.038590      0.004249
Sc	      8.56943      6.58260     10.77173        -0.074981     -0.064829     -0.055260
Ti	     10.67435     10.63639     12.76988        -0.172153     -0.024914     -0.293966
V	      4.38610      6.38307      6.41626         0.060737      0.115464      0.053545
Fe	      6.55054     10.56473      8.71730        -0.019712      0.143081     -0.138752
Ni	      4.33169      4.29115      4.32669         0.049680     -0.007820     -0.026754
O	      2.15289      2.12403      2.14338        -0.030366     -0.018277      0.027887
O	      4.34400      4.25282      2.06482         0.001526      0.026681     -0.033840
O	      4.26065      2.21142      4.31468         0.012713     -0.094795     -0.009549
O	      6.39511      4.30216      4.16840         0.103820      0.012396      0.122048
O	      6.32272      1.97603      6.51900         0.057542     -0.044698     -0.019316
O	      8.72266      4.35666      6.47972         0.142504     -0.023795     -0.028244
O	      2.25721      4.36240      4.22005        -0.096505     -0.011456      0.040567
O	      4.29407      6.39400      4.30548        -0.008066      0.118877      0.062063
O	      4.31559      4.36205      6.38887        -0.016582     -0.066019      0.107790
O	      6.38123      6.43410      6.43809         0.004970      0.015059     -0.001665
O	      6.51016      4.22276      8.55558        -0.034725      0.028977      0.032646
O	      8.61975      6.40879      8.58833         0.024779     -0.011137     -0.025082
O	      2.13969      6.40874      6.47015         0.010531     -0.017840      0.029776
O	      4.31513      8.58583      6.52570         0.019193      0.099633      0.001430
O	      4.24239      6.41520      8.50330         0.085433     -0.045928     -0.049706
O	      6.40906      8.63177      8.61103         0.013555     -0.132806      0.002612
O	      6.47480      6.38248     10.94405        -0.030977     -0.009837      0.236622
O	      8.59508      8.53907     10.75056        -0.008824     -0.020781     -0.003957
