# total energy = -139.06560532 eV
 
CRYSTAL
PRIMVEC
-2.069463 0.000109 2.069152 
0.003902 -8.249182 0.003555 
6.355779 -4.129753 6.354564 
PRIMCOORD
24 1
Li	      1.01037     -5.03995      3.07889        -0.004504     -0.012085     -0.004357
Li	     -1.13555     -7.32423      3.00165        -0.006752      0.008832     -0.006758
Li	      0.99302     -3.06032      5.13053        -0.006643     -0.028396     -0.005544
Li	      3.13863     -9.39345      5.20714        -0.002650      0.000093     -0.002084
Li	      3.38267     -7.21807      7.51827         0.002523      0.005362      0.004028
Li	     -0.84465     -1.03279      1.22291        -0.005919      0.017206     -0.006211
Mn	      3.18297     -7.23568      3.18235         0.008349     -0.013846      0.006214
Mn	      3.20753     -5.11691      5.27561        -0.010770      0.013185     -0.010697
Mn	      5.31802     -9.29523      7.38490         0.006452      0.010872      0.007398
Ni	     -0.97973     -3.05791      3.15781        -0.028752     -0.051385     -0.029608
Ni	      3.23695    -11.36062      7.37322        -0.008473      0.001218     -0.008523
Ni	      1.05910     -9.30979      3.12729         0.053074      0.041989      0.052872
O	      3.07626     -5.20142      7.21363        -0.036230     -0.093409     -0.035675
O	      3.08885     -7.11484      5.15768        -0.022018      0.013068     -0.024099
O	      5.27637    -11.23225      7.34327         0.116659      0.039137      0.117389
O	     -1.14825     -5.20063      2.98932        -0.021163     -0.076854     -0.021420
O	      1.06184     -3.10318      3.13014         0.124785     -0.107513      0.126239
O	      3.19781     -9.09713      3.19720         0.079218      0.074278      0.078151
O	      1.22972     -5.22981      5.36725         0.025652     -0.017610      0.025343
O	      1.25883     -7.14632      3.32726         0.042069      0.064389      0.043201
O	      3.22584     -3.24622      5.29324        -0.098686     -0.076461     -0.098547
O	      3.34869     -9.28331      7.48486         0.014145      0.096711      0.012464
O	     -1.00743     -3.24738      1.06057        -0.100850     -0.035218     -0.100789
O	     -0.97193     -1.01222      3.16556        -0.119516      0.126438     -0.118988
