# total energy = -255.51266720 eV
 
CRYSTAL
PRIMVEC
-0.004307 6.481627 6.390362 
6.463845 0.006671 6.379025 
4.310223 4.314779 0.003535 
PRIMCOORD
36 1
Li	      2.19374      8.58638      6.39112         0.017568     -0.028079      0.051943
Li	      6.46135      4.37782      2.30019         0.013064      0.003988     -0.042299
Li	      4.27570      2.12745      2.29250        -0.034244     -0.019685     -0.047379
Li	      4.25413      0.08731      4.16501         0.004695     -0.014952     -0.054718
Li	      6.38829      2.22212      4.13299        -0.021627      0.029868     -0.049782
Li	      2.22290      2.04894      4.13552         0.012199     -0.030947     -0.021663
Li	      4.41636      4.24543      4.13390         0.031645     -0.036092     -0.018736
Li	     10.72595      8.64288     10.67509        -0.026255      0.019786      0.014221
Li	      8.62177      6.51894     10.65234        -0.000115      0.001060      0.043682
Sc	      6.49806      6.48758     12.64999        -0.016454      0.038004      0.324320
Sc	      2.16707      4.26863      2.30166        -0.092990      0.102777      0.012266
Sc	      4.30079      2.17268      6.18010         0.110401      0.077292      0.009114
Sc	      6.50389      4.26755      6.19641        -0.031772     -0.116176     -0.022801
Sc	      2.11488      4.32973      6.28609         0.105219      0.136229     -0.002731
Ti	      8.56599      8.68218      8.72929        -0.062114      0.033302      0.257910
V	      4.24546      6.51638      6.29878        -0.106610     -0.085906      0.035714
Fe	      4.38545      6.42127      2.33714        -0.177272      0.137073     -0.092632
Fe	      6.43577      6.49980      8.67965         0.185605     -0.198573      0.464338
O	      2.01018      2.24311      2.14298         0.096623     -0.031125      0.000792
O	      4.23003      4.44956      2.09710        -0.001506     -0.058659     -0.011161
O	      4.30213      2.16343      4.25439         0.013357     -0.019886      0.042296
O	      6.47680      4.31203      4.28253         0.021322     -0.009661      0.040730
O	      6.39962      2.16649      6.44277        -0.053006     -0.027464      0.038117
O	      8.60585      4.40766      6.45598         0.021240      0.035390      0.005702
O	      2.15190      4.33702      4.28191        -0.045006      0.009727      0.064662
O	      4.30156      6.49295      4.31212        -0.002043      0.017805      0.098830
O	      4.31443      4.33346      6.41159        -0.005794      0.001298     -0.026819
O	      6.42837      6.46383      6.43795         0.039395      0.024548      0.037387
O	      6.39368      4.24644      8.49647         0.000442     -0.092842     -0.052531
O	      8.68323      6.58017      8.50791         0.135130      0.011283     -0.052736
O	      2.18330      6.43971      6.37188        -0.042916     -0.050994      0.013914
O	      4.34742      8.61679      6.43172         0.052899      0.019937     -0.002798
O	      4.35042      6.30214      8.37003        -0.226010     -0.077025     -0.105117
O	      6.66545      8.59546      8.46851         0.115469      0.194125     -0.086260
O	      6.45618      6.48549     10.71000        -0.022328      0.014355     -0.599324
O	      8.62680      8.67761     10.50687        -0.008212     -0.009779     -0.266450
