# total energy = -248.92747890 eV
 
CRYSTAL
PRIMVEC
0.055228 6.457578 6.341949 
6.455955 0.029545 6.367698 
4.325481 4.344611 -0.002268 
PRIMCOORD
36 1
Li	      0.12262      6.43159      6.35221         0.023162     -0.035113      0.015738
Li	      6.50814     10.67058      8.50913        -0.043472      0.005627     -0.012158
Li	      4.50758      8.67338      8.52771         0.020139     -0.007814     -0.019670
Li	      4.26348      0.03363      4.19141         0.014085     -0.004633     -0.021921
Li	      4.43937      4.17509      4.29018        -0.013850      0.020606     -0.035538
Li	      4.34224      2.34514      6.27380        -0.010551      0.089632      0.041838
Li	      2.16767      6.47258      4.27447        -0.016957     -0.018967     -0.011667
Li	      2.26033      4.34972      6.37372         0.046649      0.001735     -0.040170
Li	      8.56253      8.73527      8.43873         0.005185      0.050410      0.028481
Sc	     10.72966      6.49359      8.47339        -0.044827     -0.001059      0.020511
Sc	      2.25885      4.32279      2.08039        -0.005612      0.018698      0.020470
Sc	      2.35603      2.05930      4.25161         0.009600      0.005007     -0.009323
Sc	      4.27690      6.36446      6.40757        -0.016119      0.001907      0.015407
Sc	      6.49715      6.64063      8.45233         0.032502     -0.008798     -0.002531
Ti	      8.64334      8.62276     12.59819         0.004096      0.011038     -0.101758
V	      6.50289      4.42515     10.64020        -0.009945     -0.036944     -0.082801
Ni	      6.34573      2.34519      4.21468         0.138425     -0.158467      0.031379
Ni	      6.43151      4.33617      6.31414         0.017141      0.019622      0.115254
O	      2.10074      2.20442      2.07194         0.023196     -0.027913     -0.054959
O	      4.26252      4.43995      2.13986         0.020594      0.003967     -0.017517
O	      4.33261      2.16306      4.26528        -0.128390     -0.000814     -0.008871
O	      6.48762      4.36754      4.26967         0.018205      0.089863     -0.105854
O	      6.57790      2.21692      6.33259         0.049779     -0.091508      0.027487
O	      8.54410      4.13188      6.40934         0.096786     -0.075321     -0.042130
O	      2.01685      4.24301      4.23050        -0.002715     -0.018686      0.009490
O	      4.39516      6.72045      4.20776        -0.020489      0.034669      0.008901
O	      4.36004      4.37508      6.32253        -0.102080      0.013016      0.008129
O	      6.45436      6.45269      6.35012         0.011203      0.123134      0.012512
O	      6.52120      4.34198      8.56795        -0.020347     -0.003459      0.064285
O	      8.66027      6.44295      8.45899         0.004130     -0.043425     -0.010132
O	      2.21422      6.65079      6.33778        -0.019490      0.077911      0.012149
O	      4.21468      8.62014      6.22464        -0.036919     -0.008069      0.028512
O	      4.46283      6.50519      8.39860        -0.036377     -0.008995      0.061261
O	      6.53709      8.62799      8.55750         0.016197     -0.003456     -0.141617
O	      6.51189      6.25904     10.57304         0.006738      0.018974      0.043011
O	      8.75685      8.65180     10.69622        -0.029670     -0.032377      0.153804
