# total energy = -187.66692705 eV
 
CRYSTAL
PRIMVEC
0.014783 6.186698 6.314123 
6.139201 0.023921 6.304729 
4.105909 4.131275 0.003011 
PRIMCOORD
36 1
Li	      4.13818      8.15754      8.38183         0.024565     -0.087201      0.044944
Li	      4.12565      6.15378     10.38062        -0.074570      0.012627     -0.080515
Li	      6.12184      6.22211      4.23017         0.024894     -0.004992      0.016034
Li	      6.10377      4.22490      6.37388        -0.119112      0.176210      0.095763
Li	      4.11780      8.23115      4.20389         0.009214     -0.091642     -0.120722
Li	      8.18962      6.24942     10.50433         0.065588      0.014781     -0.121888
Li	      4.17074      6.18621      6.39044         0.201521     -0.179914      0.064311
Li	      4.08697      4.23669      8.44620         0.006951     -0.000647      0.052089
Li	      6.08494      6.20392      8.41183        -0.084111      0.040037     -0.123385
Fe	      4.11401      4.17163      4.24763        -0.162334     -0.266149      0.250844
Fe	      8.12184      6.22765      6.35243        -0.271740      0.224945     -0.040097
Co	      6.15831      6.22524     12.60680         0.116970     -0.353166      0.131875
Cu	      6.18623      8.24926     10.48392        -0.170888      0.257918     -0.192883
Cu	      0.01274      2.09040      2.13820        -0.096495      0.193785      0.396929
Cu	      2.04474      4.10930      2.12836        -0.190635     -0.037355      0.552606
Ni	      8.22935      8.26795     12.58507         0.060843      0.097822     -0.155283
Ni	      2.10335      6.15691      8.38812        -0.008610      0.286671      0.139638
Ni	      6.12640      8.25542      6.31845         0.241536     -0.294263     -0.286405
O	      3.98217      6.21474      8.39363         0.475042      0.056470     -0.123232
O	      6.13281      6.37373     10.71400         0.023095     -0.109859     -0.004805
O	      8.04373      8.27968     10.59486         0.064119     -0.001564     -0.197225
O	      2.01809      2.08429      2.02493        -0.094955     -0.216399      0.205843
O	      4.16111      4.16728      2.01853        -0.090083      0.042002     -0.208075
O	      4.25213      2.17411      4.27597         0.080852     -0.417118     -0.020705
O	      6.06240      4.00020      4.12545         0.420694     -0.171747     -0.005398
O	      6.12853      1.97376      6.44690        -0.094017     -0.315375     -0.055607
O	      8.31242      4.17248      6.40868         0.525030      0.095538     -0.238789
O	      2.20240      4.09156      4.16093        -0.299070     -0.003344     -0.088967
O	      4.14638      6.04698      4.14720         0.030346      0.793962     -0.199706
O	      4.08313      4.08194      6.24467         0.155065      0.124896      0.042787
O	      6.22757      6.22278      6.30348        -0.220713     -0.150033     -0.010909
O	      6.23741      4.07350      8.45996        -0.261773     -0.092026     -0.012169
O	      8.25894      6.12389      8.37319         0.162090      0.107726      0.010963
O	      1.92411      6.19112      6.35268        -0.467060      0.036990     -0.111557
O	      4.10996      8.43824      6.22599         0.013035      0.557119     -0.074484
O	      6.14971      8.31878      8.29112         0.004717     -0.326708      0.468179
