# total energy = -187.89913362 eV
 
CRYSTAL
PRIMVEC
-0.063238 6.749676 5.805695 
6.237353 -0.095539 5.836944 
4.118247 4.474931 -0.021898 
PRIMCOORD
36 1
Li	      4.11451      0.09629      3.91135        -0.021330      0.032488      0.001012
Li	      6.11440      2.20739      3.89075         0.027587      0.005036     -0.020867
Li	      4.11144      6.68337      1.96937         0.020370     -0.002415      0.007322
Li	      8.24519      4.46358      7.84147        -0.027295      0.053751     -0.007073
Li	      2.07374      2.39081      3.86892         0.024951      0.040229      0.003731
Li	      4.05450      4.43328      3.89628         0.044916     -0.002718      0.017745
Li	      4.21261      2.19954      5.75992         0.005917      0.018739     -0.048859
Li	      4.18170      8.80927      3.89193         0.003180     -0.003378     -0.046435
Li	      2.14140      6.58306      3.84370        -0.001489     -0.006615     -0.043551
Fe	      6.16816      4.46544      2.05416         0.050704      0.003775     -0.046739
Fe	      8.35956      8.75431      7.79723        -0.076712     -0.081206     -0.115228
Co	      6.10272      0.01159      5.75828        -0.109977      0.095988      0.142268
Cu	      6.25659      4.33673      5.79064         0.030842      0.058139     -0.120561
Cu	      2.01698      4.54173      5.76914         0.069845      0.000571      0.070213
Cu	      6.15389      6.65215      7.83243         0.092298     -0.159964      0.250638
Cu	      4.07317      2.29126      1.92914         0.070789     -0.027610     -0.104395
Cu	      4.14468      6.66384      5.77010        -0.132816      0.018283      0.031631
Ni	      8.21648      2.25880      5.74332        -0.008611     -0.103178     -0.124144
O	      3.87926      9.35468      5.87470         0.065650      0.031320     -0.049078
O	      6.13677      6.63490      9.81938         0.054593      0.016364     -0.054332
O	      8.21954      8.89807      9.56485        -0.059038     -0.008355      0.487853
O	      2.24451      1.96511      1.88879        -0.128670      0.091278      0.060135
O	      4.20344      4.63395      1.75967         0.013106      0.064791     -0.234327
O	      4.14134      2.12104      3.72308        -0.067706     -0.012614      0.190850
O	      6.19626      4.37750      3.91395        -0.062189     -0.023642      0.193263
O	      6.26729      1.88380      5.79900        -0.016890     -0.019647     -0.019371
O	      8.14877      4.32438      5.85000         0.062611      0.008686      0.053066
O	      2.07763      4.50384      3.95809         0.052304     -0.053137     -0.244890
O	      4.14354      6.79949      3.97909         0.015505     -0.010096     -0.238477
O	      4.38371      4.26473      5.89985        -0.116269     -0.017577     -0.276267
O	      5.97417      7.10122      5.89211         0.024521      0.050591      0.041788
O	      6.21337      4.28826      7.65964         0.180642     -0.010479      0.091636
O	      8.05414      6.87646      7.75732        -0.096532     -0.201697      0.032850
O	      2.25437      6.47739      5.83043         0.025711     -0.004793     -0.042876
O	      4.15660      6.32897      7.65665        -0.002099      0.207412      0.061325
O	      5.95664      9.16051      7.62246        -0.008420     -0.048322      0.100144
