# total energy = -188.35918772 eV
 
CRYSTAL
PRIMVEC
0.035524 6.083739 6.150850 
6.421236 0.001638 6.182837 
4.268433 4.065337 0.013051 
PRIMCOORD
36 1
Li	      2.08629      0.09515      2.08686         0.076647     -0.067277      0.059271
Li	      4.24449      2.03957      2.04519        -0.006436     -0.083941      0.039250
Li	      4.37340      6.07011      2.15022        -0.069438      0.065173      0.014686
Li	      6.26582      6.01291      4.09009        -0.101681      0.048659      0.135715
Li	      6.36592      4.06241      6.12888        -0.070972      0.108874      0.052173
Li	      4.28355      8.03944      4.15475        -0.009460     -0.036301     -0.123715
Li	      2.29493      6.07700      4.14136        -0.016275     -0.016121     -0.047643
Li	      4.26202      6.09980      6.10503         0.135714     -0.098034      0.075474
Li	      4.33251      4.03871      8.22313         0.037875      0.030730     -0.032995
Fe	      2.11979      4.00995      2.19809        -0.243850      0.237830      0.080231
Fe	      6.38226      6.07476      8.18425         0.027613     -0.251640      0.133395
Co	      4.37394      6.08918     10.24948         0.103276     -0.006654     -0.571247
Cu	      0.08610      6.08334      6.19636         0.086771      0.066845     -0.031961
Cu	      2.20903      8.09093      6.16997         0.127629      0.060178     -0.110153
Cu	      6.53233      8.17288     10.25904         0.012186     -0.133353     -0.575164
Cu	      4.25115      4.07863      4.12536        -0.056963     -0.093272     -0.070044
Cu	      4.30595      2.04392      6.16976        -0.256370      0.114684      0.143804
Cu	      2.09874      4.09276      6.10805         0.276526     -0.329267      0.133153
O	      2.06180      6.07237      6.18670        -0.389666     -0.075639     -0.009497
O	      4.37489      8.21454      6.17960        -0.307636      0.381016      0.015066
O	      4.49792      6.06232      8.34141        -0.830526      0.033609      0.187615
O	      6.47788      7.99728      8.22818        -0.010488      0.481767      0.053095
O	      6.33396      6.16903     10.09395        -0.136713      0.274997      0.762686
O	      8.56316      8.23592     10.38110         0.331529      0.147434      0.395279
O	      2.12964      2.09474      1.94419         0.002361     -0.157845     -0.219549
O	      4.14208      4.09658      2.26814         0.170371     -0.065547     -0.296731
O	      4.45519      2.04805      4.19702        -0.107720     -0.147017      0.318121
O	      6.72468      4.02146      4.11284         0.105610      0.032560      0.071646
O	      6.44442      1.96832      6.11949         0.174224     -0.409616      0.150889
O	      8.72296      4.09646      6.09169         0.294001      0.178139      0.129919
O	      1.97940      3.99095      4.08422        -0.071857     -0.006127      0.148202
O	      4.28426      5.92194      4.12820        -0.054223      0.237594      0.057312
O	      4.15846      4.01550      6.01583         0.050534     -0.129001      0.099874
O	      6.36397      6.16688      6.31952        -0.023949      0.147124     -0.759515
O	      6.48088      4.20469      8.17959         0.058401     -0.507187     -0.084469
O	      8.35890      6.04517      8.16650         0.692953     -0.033376     -0.324174
