# total energy = -186.88039130 eV
 
CRYSTAL
PRIMVEC
0.049996 6.153306 6.209959 
6.147929 0.045556 6.214496 
4.113793 4.120440 0.015048 
PRIMCOORD
36 1
Li	      4.13772     10.22430      6.24290         0.013095      0.028338     -0.029451
Li	      2.17048      8.22511      6.23402         0.072294     -0.011746     -0.031554
Li	      2.06878      0.03841      2.07206         0.003594      0.046494     -0.053801
Li	      8.21269      4.13743      8.26757        -0.017191      0.026355     -0.006330
Li	      6.17720      6.16250      4.15212        -0.118869     -0.003738     -0.051049
Li	      6.20849      4.15569      6.23686        -0.006630     -0.008476     -0.022840
Li	      4.14825      8.20490      4.17365        -0.046214     -0.019798     -0.008195
Li	      4.13160      6.21221      6.25383        -0.019805     -0.008059     -0.022502
Li	      4.15963      4.16760      8.27527         0.018390     -0.057058      0.068816
Fe	      6.23492      8.27626     10.34591         0.278956     -0.330448      0.196577
Fe	      6.22729      2.15927      8.25259        -0.370815     -0.174588      0.129540
Co	      2.10165      6.14878      4.19240         0.170740      0.004083     -0.443547
Ni	      4.05434      2.08231      2.04378        -0.129452      0.089683     -0.026302
Ni	      8.19153      4.13159      4.16453         0.092896     -0.136775      0.087578
Ni	      4.11928      4.14301      4.13689        -0.057136      0.217467     -0.018645
Ni	      8.19317      6.19093      6.21446         0.062586      0.049908      0.212307
Ni	      6.18393      8.23871      6.22806         0.160327      0.258005     -0.025843
Ni	      6.18413      6.12164      8.27375         0.265850     -0.088756      0.227915
O	      1.96254      2.07192      2.03191         0.342139      0.004012     -0.071908
O	      4.12960      4.22769      2.14995        -0.034794     -0.196316      0.119426
O	      4.14640      2.07380      4.09510        -0.155916      0.057178     -0.123614
O	      6.14122      4.06210      4.17902        -0.050691      0.238761     -0.023638
O	      5.99667      2.08144      6.20034         0.070748     -0.024959     -0.038034
O	      8.21368      4.30788      6.11233        -0.038343     -0.186688      0.011573
O	      2.13277      4.24802      4.19364         0.000047      0.053872      0.021146
O	      3.99949      6.16425      4.09084         0.048316     -0.064821     -0.000785
O	      3.98501      4.00158      6.14186         0.185996      0.147744     -0.125038
O	      6.29151      6.28924      6.27762        -0.217204     -0.181527     -0.035599
O	      6.17135      4.02912      8.26179        -0.003900      0.438217     -0.015444
O	      8.29282      6.21130      8.42009        -0.015424      0.003810     -0.180469
O	      2.10855      6.05409      6.01244         0.002718     -0.117022      0.645533
O	      4.31246      8.22207      6.29917        -0.350958      0.028805     -0.042992
O	      4.18570      6.19990      8.38672        -0.056103     -0.019433     -0.068528
O	      6.16299      8.20665      8.35474         0.034401     -0.004487     -0.211417
O	      6.31830      6.23263     10.30468        -0.197473     -0.047542     -0.107856
O	      8.17752      8.17820     10.44626         0.063827     -0.010493      0.064969
