# total energy = -189.15752355 eV
 
CRYSTAL
PRIMVEC
0.007241 6.213300 6.156374 
6.167369 0.019021 6.144449 
4.121044 4.143675 0.003273 
PRIMCOORD
36 1
Li	      6.18259     10.30377      8.24119        -0.069199      0.007287     -0.002073
Li	      6.16534      8.32204     10.15292        -0.058234     -0.016108     -0.019244
Li	      8.21457      4.22035      8.26608         0.183179      0.043942     -0.053040
Li	      2.05517      2.09904      4.11525         0.061888     -0.120506      0.001067
Li	      4.09254      4.13825      4.13439         0.116446     -0.074045     -0.066624
Li	      8.21571      6.27501      6.19566         0.014876     -0.034369      0.013855
Li	      2.09054      6.15266      4.02035        -0.089571      0.021981      0.034013
Li	      8.20275      8.22444      8.18486        -0.045438     -0.005960     -0.027757
Li	      6.20624      6.29272      8.16581         0.000421      0.013464      0.044917
Fe	      2.01977      2.03161      0.03214         0.071822     -0.025313     -0.026804
Fe	      4.04220      0.05587      4.01997         0.288530      0.089262      0.098402
Co	      6.17404      0.03810      6.15198        -0.275909      0.084498     -0.526873
Co	      0.03680      4.14996      4.09016         0.794728     -0.047872     -0.786683
Cu	      4.11056      6.21862      2.11771         0.096305     -0.504792     -0.281628
Ni	      4.15265      2.10063      2.09293        -0.081370      0.154870     -0.060953
Ni	      6.13446      4.19700      6.17136        -0.038200      0.078933      0.030563
Ni	      6.23500      8.23614      6.15566         0.138557      0.071719      0.307708
Ni	      4.12713      6.17301      6.16053        -0.046890     -0.040896      0.224092
O	      8.41517      6.21967      8.21880        -0.055118      0.023856      0.016533
O	      1.98599      2.08747      1.97425        -0.148534      0.042936      0.218731
O	      4.10748      4.16218      1.86584         0.049409      0.158851      0.622673
O	      4.13820      1.91386      4.07644         0.009741      0.343520      0.066813
O	      6.28260      4.10783      4.15770        -0.400258     -0.030928      0.079105
O	      6.21881      2.05751      6.18594        -0.165767     -0.946968      0.020202
O	      8.23258      4.09702      6.03854         0.863414      0.075801      0.228152
O	      1.93873      4.13643      4.22973        -0.039793      0.100255     -0.061892
O	      4.11964      6.38859      4.10225        -0.194985     -0.461518      0.163647
O	      4.12175      4.21902      6.09408        -0.030851     -0.218330      0.025945
O	      6.09344      6.22234      6.19754         0.232517      0.155083     -0.017171
O	      6.19482      4.07674      8.32438         0.029218      0.157474     -0.747599
O	      2.04376      6.23847      6.10291        -0.818316     -0.027988      0.023240
O	      4.10641      8.30441      6.09597        -0.140879      0.862828      0.904007
O	      4.11883      6.27601      8.28390        -0.024195     -0.076025     -0.364161
O	      6.15029      8.29058      8.06772         0.120432     -0.040783      0.014831
O	      6.12256      6.12522     10.39945        -0.040331      0.398620     -0.129761
O	      8.35860      8.45489     10.29016        -0.307645     -0.212777      0.033768
