# total energy = -138.99093205 eV
 
CRYSTAL
PRIMVEC
-2.068293 0.000029 2.068135 
-4.181009 -6.227857 -2.112696 
6.321315 -4.179375 6.320752 
PRIMCOORD
24 1
Li	     -2.97092     -3.13503      1.16625        -0.013845      0.002082     -0.014746
Li	     -0.87729     -1.16540      1.19142        -0.007302      0.000007     -0.006593
Li	      1.01534     -5.05787      3.08611         0.006271     -0.042510      0.004684
Li	      0.99423     -3.02228      5.13108         0.025457     -0.023035      0.025447
Li	     -3.17467     -5.35768     -1.10717        -0.002975     -0.001296     -0.002913
Li	     -1.13948     -7.30332      2.99802        -0.004550     -0.008000     -0.004798
Mn	     -1.02691     -5.21120      1.04210        -0.006048     -0.017705     -0.005089
Mn	      3.19491     -5.16073      5.26205        -0.009110      0.041734     -0.008964
Mn	      1.09476     -7.29016      5.23017         0.013729      0.025506      0.014798
Ni	     -3.13853     -7.31117      0.99865         0.017565      0.055383      0.019770
Ni	     -0.98301     -3.09875      3.15446        -0.032649     -0.035473     -0.035235
Ni	      1.10084     -9.36451      3.16791        -0.004526     -0.004023     -0.001681
O	      1.04834     -3.13226      3.11774         0.090069     -0.111328      0.086976
O	     -1.04253     -7.14053      1.02656         0.087906      0.054175      0.083978
O	      3.07833     -5.23707      7.21382         0.016247     -0.088044      0.019619
O	      1.09697     -9.16951      5.23238         0.105411      0.111093      0.104069
O	     -1.12902     -5.22894      3.00822        -0.017887     -0.092524     -0.014216
O	      3.06515     -7.16642      5.13229        -0.031908      0.000546     -0.030307
O	     -1.00350     -3.27657      1.06550        -0.070122     -0.054928     -0.067689
O	     -1.00393     -1.05222      3.13299        -0.111459      0.102367     -0.114063
O	      1.20505     -5.29030      5.34020        -0.021605     -0.037721     -0.022434
O	      3.22737     -3.28204      5.29420        -0.104768     -0.058882     -0.101719
O	     -2.98193     -5.18650      1.15522         0.024990      0.093499      0.022828
O	      1.22141     -7.24626      3.28863         0.051111      0.089078      0.048280
