# total energy = -189.19118354 eV
 
CRYSTAL
PRIMVEC
0.041762 6.206102 6.268240 
6.153963 0.035536 6.274353 
4.106626 4.145297 0.020032 
PRIMCOORD
36 1
Li	      6.14446      4.16629      2.12731        -0.012591     -0.214171      0.055476
Li	      6.21064      8.25173     10.47343         0.008900     -0.003088     -0.181437
Li	      4.09693      6.20186      2.13749        -0.147308      0.043494      0.091735
Li	      4.06129      4.16400      4.12598         0.068359      0.024081     -0.036554
Li	      8.21491      6.24418      6.34119        -0.130570      0.173746      0.126286
Li	      6.21332      4.21987     10.42567        -0.014405     -0.014419     -0.200970
Li	      2.05846      6.13882      4.17386        -0.036541      0.033106     -0.177419
Li	      2.08030      4.14793      6.19208         0.141290     -0.156608      0.188468
Li	      6.19511      6.22904      8.45918         0.054431      0.043670     -0.003548
Fe	      6.13719      4.07805      6.28513        -0.353445      0.482746      0.252670
Fe	      4.06925      6.22481      6.22948         0.565990     -0.444287      0.231704
Co	      4.28898      8.31044      8.37920        -0.803596     -0.049726      0.018825
Co	      8.23058      8.20942      8.42527        -0.111477      0.938393     -0.214232
Cu	      8.21868      4.23797      8.42038        -0.072761      0.253454      0.125614
Cu	      2.06199      2.09388      4.16542        -0.101723      0.028783     -0.007477
Ni	      6.21710      6.27597     12.52409         0.113330      0.086591      0.043280
Ni	      8.25999      8.31602     12.51297        -0.128695     -0.148582      0.087519
Ni	      4.16290      6.24459     10.44881         0.007934     -0.073084     -0.235757
O	      8.18793      6.36969      8.44079         0.106982     -0.478623      0.011775
O	      6.04320      6.25558     10.56964         0.038222     -0.063980     -0.155280
O	      2.24874      2.12145      2.14513         0.249716     -0.041875     -0.537111
O	      4.09073      4.13905      1.99900         0.121456     -0.311223      0.259818
O	      4.05925      1.94550      4.13982         0.220567      0.267285     -0.654047
O	      6.29191      4.21365      4.27464        -0.072978      0.171376     -0.135273
O	      6.19482      2.13100      6.28222         0.225139     -0.099421     -0.017695
O	      8.18401      4.18020      6.38809         0.083338     -0.047384     -0.136733
O	      2.08203      4.06606      4.07475        -0.006800     -0.132495      0.179801
O	      4.18116      6.19179      4.33186         0.135534      0.019405     -0.445404
O	      4.14801      4.16054      6.37343        -0.151028     -0.161009      0.352716
O	      6.04706      6.13987      6.18702         0.259420      0.098803      0.022163
O	      6.16901      4.17135      8.28321         0.056452     -0.059026      0.126944
O	      2.15687      6.25332      6.19549        -0.520663      0.085686      0.044943
O	      4.13302      8.29197      6.34870         0.141987     -0.038865      0.612158
O	      4.12730      6.15478      8.24643         0.014499     -0.028531      0.314901
O	      6.10464      8.29832      8.39090         0.060841      0.071974     -0.061188
O	      8.25471      8.50088     10.41001        -0.009806     -0.256198      0.053331
