# total energy = -190.32171220 eV
 
CRYSTAL
PRIMVEC
0.012845 6.174542 6.352780 
6.059412 0.010940 6.352665 
4.048909 4.126817 -0.002396 
PRIMCOORD
36 1
Li	      8.10349      8.26084     12.69789         0.023994      0.033867     -0.139854
Li	      2.04012      0.06008      2.13452        -0.108600     -0.102106     -0.045116
Li	      3.99222      1.98802      2.21975         0.073487      0.095312     -0.024021
Li	      4.04812      6.18225     10.44899        -0.046840     -0.028662      0.106345
Li	      6.15420      8.33603     10.40823         0.025801      0.031727     -0.101697
Li	      8.09561      4.09809      8.39476        -0.008613      0.032495     -0.028002
Li	      4.02246      4.09647      4.12669        -0.042586     -0.031954      0.012818
Li	      2.07453      6.19972      4.23842        -0.003086     -0.023730      0.058538
Li	      8.11313      8.27989      8.55102        -0.106038     -0.065476      0.023633
Fe	      6.05399      0.07216      6.36161         0.252574     -0.259550     -0.188352
Fe	      6.07205      4.10542      6.19524        -0.086282     -0.205546      0.274925
Co	      4.02399      8.22589      4.28760         0.131580      0.070797      0.267589
Co	      6.11018      8.23025      6.43885        -0.602171     -0.158895     -0.563739
Cu	      6.05930      2.07151      8.46353        -0.171176      0.056730      0.109928
Cu	      2.01587      2.07977      4.16579        -0.144592      0.013220      0.134066
Cu	      4.04846      2.05802      6.31516         0.016302      0.294787     -0.092364
Ni	      4.00093      6.22781      6.51174         0.056043     -0.313056     -0.278751
Ni	      6.08412      6.19918      8.58781         0.013702      0.212412      0.040858
O	      8.21141      6.18279      8.38204        -0.109848     -0.018262     -0.050042
O	      4.08503      6.18762      8.46778         0.162208     -0.035892     -0.080071
O	      8.29158      8.18548     10.65377         0.044228      0.032413     -0.034057
O	      1.85535      2.07865      2.00375         0.168988     -0.033056      0.222126
O	      4.02157      4.29721      1.96055         0.038245      0.041193      0.198970
O	      3.86463      2.09679      4.26780         0.059351     -0.020219      0.007921
O	      6.00413      4.27660      4.30657         0.073546      0.184179     -0.446337
O	      6.00011      2.10268      6.05853         0.267676      0.016887     -0.015974
O	      8.04277      4.19889      6.31912         0.011252     -0.207960      0.022262
O	      1.93248      3.97762      4.50771         0.156072      0.007970     -0.531600
O	      4.17908      6.32659      4.44679        -0.050859     -0.036301      0.108894
O	      3.99127      4.08147      6.36275         0.541224      0.318536      0.134030
O	      6.14052      6.19223      6.56759        -0.621660     -0.041832      0.076966
O	      6.08454      3.99960      8.68583         0.061627      0.043168      0.022086
O	      2.01062      5.96970      6.32558         0.053596      0.383025     -0.060487
O	      4.16993      8.29936      6.25673        -0.268981     -0.061520      0.034881
O	      6.03724      8.24262      8.27287         0.187162     -0.218791      0.954579
O	      6.13201      5.97478     10.61776        -0.047325     -0.005910     -0.130949
