# total energy = -189.89888954 eV
 
CRYSTAL
PRIMVEC
-0.010368 6.158907 6.131519 
6.247275 -0.030720 6.151648 
4.152764 4.107103 -0.008159 
PRIMCOORD
36 1
Li	      6.17516     10.22498      8.15390         0.135506     -0.005246      0.023540
Li	      4.17943      8.24251      8.12397        -0.017182     -0.163486      0.005954
Li	      4.15910      6.11342      2.05796         0.027596      0.091174      0.020244
Li	      2.10112      4.12029      2.08368        -0.107131     -0.039772     -0.033900
Li	      6.21146      4.10555      6.15063         0.112975      0.061413      0.033461
Li	      4.16584      8.18248      4.10185        -0.049116      0.029243     -0.028971
Li	      2.10839      4.10346      6.14316        -0.013394     -0.025978     -0.003611
Li	      4.11084      6.15108      6.12570         0.045108      0.012769      0.094417
Li	      4.16097      4.10393      8.14920         0.038554      0.116527      0.095668
Fe	      4.18225      2.10737      6.21308         0.028326     -1.007390     -0.125677
Fe	      6.19947      6.09015      8.14484        -0.378189      0.008973     -0.108534
Co	      4.15507      6.09863     10.19279         0.092586      0.327439      0.140090
Co	      2.01218      2.08767      3.97690         0.003591      0.004812      0.274696
Cu	      2.08557      2.04307      0.09772        -0.199899      0.431466     -0.169031
Cu	      6.23043      8.21169     10.19327        -0.118471      0.164375     -0.023281
Cu	      4.15286      4.11787      4.02628         0.057605     -0.181636      0.247130
Cu	      2.13135      6.14055      4.07262         0.198926     -0.072940     -0.048880
Ni	      4.18048      4.06095      0.07662        -0.194206      0.017447     -0.399879
O	      2.04608      6.23242      6.03608        -0.015519     -0.290229      0.007718
O	      3.97843      8.24166      6.13154         0.418779      0.203846      0.034075
O	      6.22021      7.99737      8.22097         0.016558      0.296109     -0.001805
O	      8.18636      8.28126     10.23766         0.181798      0.076358      0.468040
O	      2.05901      2.07231      2.19886         0.028100     -0.076353     -0.446504
O	      4.16977      4.09533      2.07858        -0.001130     -0.019847      0.541660
O	      4.16109      1.95802      4.15244         0.000424     -0.178988      0.084064
O	      6.30037      4.08544      4.04656         0.284280     -0.005218     -0.021181
O	      6.27335      2.00176      6.13523        -0.130337     -0.190558     -0.028106
O	      8.35493      4.11110      5.98632        -0.031391     -0.115647      0.134307
O	      2.14724      4.04894      4.10619        -0.093897     -0.015822      0.037387
O	      4.20710      6.10302      4.08538         0.099343      0.134370      0.006240
O	      4.19755      3.97942      6.05118        -0.001408      0.913888     -0.759280
O	      6.31664      6.15021      6.10051        -0.152993      0.003976     -0.126191
O	      6.22695      4.29677      8.20996        -0.003842     -0.351402      0.032669
O	      8.22577      6.13633      8.20037         0.142345      0.056610      0.088126
O	      4.24188      6.11819      8.34383         0.049738     -0.004893     -0.277636
O	      6.17080      6.21755     10.22499        -0.454033     -0.205389      0.232981
