# total energy = -190.99490812 eV
 
CRYSTAL
PRIMVEC
-0.002739 6.748473 5.819691 
6.143462 -0.066158 5.890716 
4.083981 4.530538 -0.035793 
PRIMCOORD
36 1
Li	      0.01776      0.08898      0.09186        -0.092134     -0.025983     -0.045751
Li	      1.98988      2.10238      0.08486         0.015946      0.006716     -0.019625
Li	      1.94726      0.13853      1.92949         0.024989      0.022138     -0.028817
Li	      4.05671      2.58323      1.87667         0.062009     -0.005578     -0.058308
Li	      4.18209      6.60869      1.92644        -0.016844      0.067827     -0.066741
Li	      2.17774      4.19929      1.84344        -0.101029     -0.001426     -0.038063
Li	      6.14535      4.49068      5.90412        -0.009937     -0.085381      0.138894
Li	      6.14256      8.98212      5.80102        -0.040938      0.024840      0.040425
Li	      6.11082      6.69017      7.76397        -0.016390     -0.053210      0.087057
Fe	      8.13183      4.54444      3.94156         0.236266     -0.184755     -0.258815
Fe	      8.20786      6.72448      5.90415         0.161280     -0.087810     -0.050663
Co	      4.13733      9.03105      3.91173        -0.040518     -0.270123     -0.793486
Co	      8.14045      9.01078      7.78004         0.549401     -0.111796      0.052811
Cu	      6.17849      8.99438      9.71595         0.008260     -0.031203     -0.007725
Cu	      2.05538      2.23613      3.84431         0.016057      0.005398     -0.088908
Cu	      4.08966      4.53666      3.87389        -0.058301     -0.096413      0.079995
Cu	      8.12864      6.70694      9.73943        -0.290677     -0.006152     -0.351236
Cu	      4.07400      6.74313      5.85478         0.078883      0.206827      0.102242
O	      2.10836      6.66066      5.68459         0.307810      0.024624      0.256188
O	      4.04643      9.03425      5.63420         0.039530      0.014875      0.727474
O	      4.11052      6.35314      7.74817        -0.075677      0.074955     -0.071066
O	      6.28487      8.96847      7.86246         0.027820     -0.001891     -0.141005
O	      6.24970      6.36981      9.75621         0.106529     -0.183710      0.098844
O	      2.09313      2.21688      2.00914         0.000244     -0.025358     -0.099873
O	      4.08801      4.55954      2.00971         0.011345      0.005426     -0.034266
O	      4.36616      1.99666      3.85219        -0.259953     -0.070145     -0.064284
O	      6.14457      4.85583      3.86720        -0.238343      0.014741      0.005117
O	      6.12429      2.22071      5.74122         0.056855     -0.058318      0.226839
O	      8.16384      4.72280      5.84779        -0.040136      0.064985      0.199446
O	      2.05690      4.13905      3.83734         0.110266      0.070278      0.030047
O	      3.83386      7.04774      3.90738         0.178591      0.423454      0.050892
O	      4.11036      4.20677      5.87257        -0.083950      0.006728     -0.074478
O	      6.10498      6.76134      5.70329        -0.393100      0.035885      0.218979
O	      5.93614      4.41442      7.98825        -0.397858      0.179289     -0.096904
O	      8.12787      7.05916      7.86673         0.011232      0.020743      0.173477
O	      8.02543      9.26325      9.69241         0.152471      0.029524     -0.098718
