# total energy = -194.59231199 eV
 
CRYSTAL
PRIMVEC
0.010252 6.168759 6.211560 
6.087348 0.001834 6.220138 
4.073594 4.133855 -0.014238 
PRIMCOORD
36 1
Li	      4.08187      2.06817      2.12117        -0.028132      0.043914     -0.005792
Li	      6.05382      2.06003      4.11267        -0.026279      0.004013      0.012434
Li	      8.14137      4.11609      8.23737        -0.003708      0.007745      0.003125
Li	      4.10460      4.07692      4.12413        -0.006368     -0.008263      0.007760
Li	      4.05200      2.05046      6.17073        -0.006402      0.026885      0.012850
Li	      6.06589      4.15572      6.18834        -0.123044      0.069741     -0.010011
Li	      6.09352      4.12090     10.33858         0.036795     -0.025520     -0.003943
Li	      4.11831      6.13049      6.28632         0.041823     -0.075246      0.010375
Li	      6.04838      6.13564      8.29392         0.041413     -0.047160     -0.004445
Fe	      8.11542      6.15374     10.31212         0.315685     -0.123526      0.050394
Fe	      6.09681      8.16929      6.23787         0.070776      0.186044     -0.137435
Co	      6.08781      2.07747      8.27512        -0.166916      0.107678      0.047839
Co	      2.02249      2.08613      4.12084         0.217403     -0.040405      0.401410
Co	      8.16729      8.22421      8.29091        -0.096097      0.057156     -0.157758
Cu	     10.13884      4.17428      6.22631         0.260573     -0.119471     -0.059098
Ni	      2.08171      2.09301      0.01482         0.133130     -0.122269     -0.052723
Ni	      6.11135      4.13867      2.09658         0.084998     -0.080994      0.003917
Ni	      4.07625      0.02954      4.15543        -0.046528     -0.027155     -0.150635
O	      5.92609      4.00815      8.24843         0.015022     -0.102384      0.024516
O	      1.92425      2.08114      2.15368         0.010761      0.035132      0.140090
O	      4.10697      4.29495      1.97801        -0.131073      0.010571     -0.127531
O	      3.90168      2.06348      4.09646        -0.206912      0.174705      0.037874
O	      6.10518      4.32029      4.12221        -0.087158      0.021384     -0.029664
O	      6.16980      2.02286      6.34093        -0.278688     -0.059722      0.044664
O	      8.19399      4.05180      6.16210         0.090865      0.411328      0.133833
O	      2.05248      4.08812      4.19679         0.037433      0.054476     -0.083943
O	      4.11940      6.18657      3.99213         0.033792      0.081031     -0.060339
O	      3.96310      4.10344      6.40662         0.378621      0.013878      0.217347
O	      6.06532      6.25376      6.02314        -0.071780     -0.355053     -0.347388
O	      8.21221      6.25700      8.33205         0.088587      0.033456     -0.108185
O	      2.05036      6.19009      6.15057        -0.099455     -0.026934      0.031315
O	      4.13709      8.31954      6.27751        -0.335265      0.054487      0.066700
O	      4.07096      6.00316      8.34579         0.106587     -0.104911     -0.097242
O	      6.23028      8.24068      8.24405         0.055007     -0.077693      0.180054
O	      6.16947      6.17895     10.42098        -0.287227      0.000686      0.093743
O	      8.13226      8.18580     10.23229        -0.018237      0.002397     -0.084111
