# total energy = -193.12307077 eV
 
CRYSTAL
PRIMVEC
-0.028459 6.214455 5.958415 
6.231662 -0.029322 5.959055 
4.148449 4.137777 -0.013976 
PRIMCOORD
36 1
Li	     10.30627      4.09452      5.93122         0.027455     -0.023533      0.009620
Li	      8.27869      2.18094      5.95715         0.023845     -0.011628      0.052237
Li	      6.17862      4.16768      1.96713         0.039465      0.023026     -0.019750
Li	      4.12039      2.10684      1.97302        -0.034468      0.020941      0.004662
Li	      8.30474      4.11986      7.80369        -0.005254     -0.005242     -0.033190
Li	      8.28824      6.09084      5.94614        -0.046290      0.022721      0.008289
Li	      6.37372      4.11416      5.95413         0.028708      0.060866     -0.007463
Li	      8.32054      8.19294      7.93273         0.011661      0.019908     -0.018657
Li	      6.24885      6.18367      7.91380        -0.006834     -0.036695     -0.049799
Fe	      6.21524      2.05632      7.79877         0.079490     -0.144876      0.102776
Fe	      4.11727      6.19709      6.12115         0.005588     -0.030373     -0.072213
Co	      6.24786      8.23461      9.85420         0.039713      0.036647      0.015005
Co	      6.20602      6.20300      3.96651        -0.012208      0.044494      0.059189
Co	      6.20165      8.24783      6.01099        -0.027933     -0.015128      0.132599
Cu	      4.15806      4.11161      3.96892         0.042059     -0.073155      0.028598
Cu	      6.17520      4.15710      9.92695        -0.031825      0.020067      0.032910
Ni	      4.12504      6.20471      9.91952         0.070393      0.007955     -0.167365
Ni	      8.26873      6.18591      9.91992        -0.019437     -0.041539      0.027507
O	      8.48555      6.16218      7.96231        -0.204916     -0.003148     -0.145281
O	      6.18629      8.28200      8.02240         0.026736     -0.016654      0.031530
O	      1.89781      2.08978      2.06924         0.153802      0.005842      0.011235
O	      4.13653      4.29219      2.09496        -0.009071     -0.212569     -0.007622
O	      3.99012      2.09139      3.92878        -0.043201      0.263717      0.002796
O	      6.29293      4.26698      3.98779        -0.105792     -0.005211     -0.025476
O	      6.22959      2.04743      5.83075        -0.002811      0.021062     -0.346672
O	      8.32337      4.12519      5.82814         0.030329      0.007392      0.130589
O	      1.99661      4.02855      4.11904        -0.030865     -0.061614     -0.033066
O	      4.24229      6.17764      4.04770         0.051974     -0.190421     -0.211261
O	      3.98790      4.17766      5.86729        -0.039612     -0.215308     -0.033537
O	      6.14939      6.30638      5.91134         0.160406     -0.027976     -0.080087
O	      6.22289      3.94590      7.99991        -0.013422      0.285343      0.032088
O	      2.13120      6.03340      5.93602        -0.199757      0.008510      0.052464
O	      4.25161      8.19879      5.92824         0.014753      0.220546     -0.088890
O	      4.13865      6.18654      7.94307         0.025399      0.013464      0.624607
O	      6.21018      6.19892      9.88378        -0.050010      0.024605      0.001019
O	      8.26782      8.25602      9.93397         0.051929      0.007964     -0.019390
