# total energy = -194.03310273 eV
 
CRYSTAL
PRIMVEC
0.020175 6.158248 6.245012 
6.144373 0.004204 6.261220 
4.102862 4.122453 -0.003798 
PRIMCOORD
36 1
Li	      6.10523      6.15001     12.42829        -0.042907      0.083663      0.048209
Li	      8.18984      2.17641      6.21790        -0.052241     -0.049524      0.030035
Li	      4.14101      8.19232      8.37257        -0.066423      0.005656      0.005338
Li	      8.26188      4.10918      4.30606         0.014660      0.000602      0.075993
Li	      8.19252      4.18160      8.18809         0.019616      0.029643     -0.055801
Li	      8.19639      6.07119      6.27241         0.058978      0.030570      0.082366
Li	      6.28298      4.12691      6.26068         0.041244     -0.090448      0.078264
Li	      8.10804      6.19272     10.40678        -0.016708      0.082696     -0.084139
Li	      6.16290      6.18280      8.39583         0.060067     -0.010325      0.019803
Fe	      4.10281      6.20558      6.24972        -0.059702      0.042889     -0.009920
Fe	      8.18380      8.19103      8.39225         0.171463     -0.296169     -0.209446
Co	      6.14159     10.25363      8.29971        -0.085447      0.174722     -0.089038
Co	      4.11232      6.16653      2.07565         0.056487     -0.211025      0.003943
Co	      2.06894      4.13134      6.20427        -0.127585      0.076039      0.166931
Cu	      6.11957      2.01175      4.22013         0.089469     -0.130041      0.308192
Cu	      2.11873      2.01488      4.18785         0.075607     -0.096630     -0.217371
Cu	      4.09307      4.08233      4.14680         0.031435      0.004121      0.023873
Cu	      6.16966      4.20515     10.42704        -0.171822      0.024073     -0.156351
O	      6.11792      3.99720      8.49828         0.068195      0.077689      0.048176
O	      4.22896      8.18843      6.08218         0.097471      0.184801      0.050264
O	      6.15291      6.28814     10.38231        -0.020347     -0.396145     -0.041286
O	      8.05764      8.22466     10.35333         0.314341      0.065719      0.068493
O	      1.94622      1.90239      2.23419         0.285869     -0.133728      0.009742
O	      4.19528      4.24049      2.14459         0.103040      0.086322     -0.093781
O	      4.20931      2.12736      4.16381        -0.472236      0.085420     -0.009418
O	      6.07180      3.95231      4.00943         0.016304      0.391699     -0.052791
O	      6.21087      2.08992      6.56550         0.051023      0.172187     -0.178826
O	      8.18717      4.10384      6.27294        -0.004698      0.048180      0.017800
O	      2.13041      4.12732      4.28207        -0.074951     -0.189973     -0.018023
O	      4.11629      6.08351      4.10692         0.127592      0.036113      0.209799
O	      4.01846      4.18312      6.22494         0.023687     -0.104538      0.084788
O	      6.11454      6.28685      6.15499         0.100254      0.058577      0.014560
O	      8.38050      6.22954      8.34475        -0.440397      0.082987     -0.057381
O	      2.09633      6.08630      6.35989        -0.088648     -0.077134     -0.019986
O	      3.99555      6.12523      8.23065         0.000469     -0.041786      0.076693
O	      6.17214      8.31596      8.10157        -0.083161     -0.016906     -0.129706
