# total energy = -193.21251807 eV
 
CRYSTAL
PRIMVEC
0.013955 6.259449 6.174025 
6.112683 0.006953 6.180692 
4.086848 4.189137 -0.006809 
PRIMCOORD
36 1
Li	      4.08009      4.20128      0.07761        -0.018161      0.004613      0.064503
Li	      5.94962      4.17312      2.14558        -0.071076     -0.029402      0.033627
Li	      4.06828      2.16784      2.09069        -0.009910      0.017055     -0.012045
Li	      4.12389      6.17820      2.00038         0.007427     -0.018432     -0.024314
Li	      6.13621      6.19986      4.05504         0.024771     -0.040379     -0.042176
Li	      4.11520      4.17663      4.17967         0.029344      0.008729     -0.069961
Li	      4.09387      2.23420      6.11409         0.043487     -0.041054     -0.011791
Li	      6.03240      4.18728      6.13972         0.043337     -0.022241     -0.003893
Li	      4.10126      6.18205      6.16054         0.012291      0.015834     -0.003235
Fe	      2.06199      2.07274      0.07108        -0.012095      0.044858     -0.116953
Fe	      3.99614      0.15995      4.18183         0.071639     -0.082064      0.111041
Co	      2.11014      4.18655      2.02537         0.172886     -0.215174     -0.158024
Co	      2.10740      6.25233      4.11848         0.040943      0.001518      0.051283
Co	      6.14030      6.28057      8.19304        -0.151206      0.057706     -0.148409
Ni	      6.08012      2.14751      4.13386        -0.019813      0.035306      0.068763
Ni	      4.12583      8.31604      4.10437        -0.018282      0.044073     -0.048958
Ni	      6.12566      8.34592      6.19407        -0.099390      0.039108     -0.062987
Ni	      4.12201      4.18412      8.17007         0.040310     -0.043409      0.060992
O	      2.03491      2.24683      1.99244        -0.017269      0.190121      0.329596
O	      3.92697      4.18881      2.04867        -0.202464      0.039258      0.018860
O	      4.07760      2.02599      4.17724        -0.067627      0.182246     -0.040381
O	      6.20625      4.18445      4.06620        -0.148241      0.055496     -0.017305
O	      6.30349      2.08386      6.14885        -0.319614     -0.029886      0.037635
O	      8.18848      4.12163      6.20099         0.075600      0.030850      0.025076
O	      2.04852      4.33310      4.01022         0.091402      0.107566      0.010840
O	      3.90805      6.31249      4.04586        -0.151086     -0.113971     -0.002718
O	      4.02111      4.18443      6.22426        -0.000621      0.021777     -0.105840
O	      6.12323      6.34427      6.38837        -0.016200     -0.043704      0.174426
O	      6.23672      4.34212      8.21283         0.173075      0.120989      0.025760
O	      8.07607      6.20650      8.35081        -0.074210     -0.092135      0.131150
O	      2.01937      6.24136      5.97052         0.000159     -0.053488     -0.129886
O	      4.00545      8.31459      6.13531         0.336348     -0.030432      0.057653
O	      4.28440      6.18973      8.37475         0.178551      0.074958     -0.077524
O	      6.16720      8.21421      8.24162        -0.094315     -0.087367      0.024303
O	      6.21114      6.26767     10.15393         0.118133     -0.064175     -0.092975
O	      8.18373      8.23596     10.28961         0.031876     -0.084747     -0.056132
