# total energy = -195.98579058 eV
 
CRYSTAL
PRIMVEC
-0.027995 6.212850 6.147473 
6.180803 -0.015855 6.135114 
4.102839 4.116057 0.007216 
PRIMCOORD
36 1
Li	     10.23722      4.09716      6.16139        -0.040699      0.018260      0.068150
Li	      2.05733      8.25514      6.15953         0.007122     -0.009204      0.090716
Li	      2.11648      6.08162      8.14515        -0.047798      0.125549      0.049535
Li	      4.17218      8.21045      8.15435        -0.125544      0.031171      0.067715
Li	      4.11921      0.01175      4.09988        -0.101870      0.143868      0.009277
Li	      8.20387      6.12567      6.13974        -0.089907     -0.070690     -0.083378
Li	      6.18960      4.13237      6.11011         0.066447      0.063763     -0.067058
Li	      6.13181      8.27446      6.28441        -0.029630     -0.055299     -0.067918
Li	      6.10019      6.27553      8.16406         0.020089     -0.065327     -0.073891
Fe	      6.17897      2.03452      7.99080         0.269938     -0.117837      0.226238
Fe	      6.09234      4.26362     10.28627         0.337879     -0.282899      0.032933
Co	      8.23479      4.12570      8.15410         0.072154     -0.293276      0.065679
Co	      6.18560      6.13141      4.12766        -0.351300      0.397241      0.121227
Co	      4.09318      4.11521      4.10850         0.032375     -0.086545     -0.031683
Co	      4.07775      6.17728      6.12781         0.325425      0.007657     -0.081829
Cu	      6.15344      2.04417      4.11942        -0.008697     -0.067585      0.296622
Ni	      8.18032      6.21275     10.28830         0.020775     -0.117573      0.041866
Ni	      4.03704      4.17958      8.13769         0.044610     -0.003964     -0.169102
O	      6.18640      8.22972      8.32181        -0.368941     -0.187405      0.002164
O	      2.00032      2.21392      2.21105         0.073205      0.081501     -0.248146
O	      3.97680      4.16914      2.16174         0.003468     -0.012881     -0.029097
O	      4.04019      2.19900      4.14095        -0.233342      0.048249      0.075212
O	      6.01024      4.18582      4.07046        -0.001740      0.155503     -0.266395
O	      6.19170      2.03875      6.13034        -0.015505     -0.008935     -0.291742
O	      8.22600      4.08581      6.38190         0.023887      0.017387      0.005822
O	      2.10717      4.12051      3.98008        -0.140752     -0.461086     -0.138563
O	      4.11704      6.09360      4.12466         0.440036      0.138805      0.092805
O	      4.09726      4.29667      6.05549        -0.033578     -0.005573      0.067825
O	      6.00739      6.20506      5.96458        -0.014602     -0.068605      0.239806
O	      6.25479      4.04620      8.28252         0.145729      0.056018     -0.040906
O	      8.27031      6.07587      8.22418        -0.068084     -0.283629     -0.076647
O	      2.22366      6.19718      6.12598         0.006264      0.008682      0.172510
O	      4.11757      8.08336      6.05538        -0.013374      0.042957      0.064906
O	      4.12520      6.14740      8.00474         0.163522      0.431740     -0.120130
O	      6.14752      6.15040     10.30058        -0.155717      0.259041     -0.027484
O	      8.25096      8.25841     10.18750        -0.211847      0.170924      0.022962
