# total energy = -92.77871126 eV
 
CRYSTAL
PRIMVEC
0.000226 2.067027 2.067229 
6.079691 6.241571 -4.174147 
-4.089085 2.104053 -2.104620 
PRIMCOORD
16 1
Li	     -1.99553      4.10433     -2.03912         0.006979      0.013040     -0.009828
Li	     -0.05188      6.26274     -2.13104        -0.004371      0.002836      0.001259
Li	      2.02575      6.25510     -4.18922         0.002772      0.002003     -0.001450
Li	      4.02459      8.31472     -4.18022        -0.010605     -0.009933      0.010202
Mn	     -4.02530      4.18185     -0.04974         0.034291      0.000782      0.005119
Mn	      2.00200      4.16315     -2.09473        -0.017881     -0.005480      0.002851
Ni	     -0.10681      4.17163     -0.03618        -0.021094     -0.069327      0.063472
Ni	      4.05740      6.24276     -2.10855        -0.004514     -0.009650      0.009714
O	      4.18985      6.21842     -4.15173         0.045563      0.124340     -0.121452
O	     -0.16920      6.28223     -4.21542        -0.050067     -0.095795      0.093290
O	      2.02583      8.45806     -4.32550         0.112655      0.006965     -0.004143
O	     -2.13038      4.18978     -0.05759        -0.134112     -0.010006      0.011573
O	      0.06482      4.11344     -2.04458         0.047769      0.115456     -0.121163
O	      1.98322      6.13170     -1.99599        -0.107845     -0.003330      0.001429
O	      0.01707      2.00242      0.06345         0.008592     -0.078468      0.079289
O	      1.97746      4.28247     -0.14677         0.091869      0.016567     -0.020163
