# total energy = -139.41189511 eV
 
CRYSTAL
PRIMVEC
-4.083032 -2.074764 2.062037 
2.092793 -4.224505 2.090290 
2.080118 2.101010 8.351272 
PRIMCOORD
24 1
Li	      1.03966     -3.20449      5.15070         0.001719     -0.006922      0.005961
Li	      1.14368     -0.95990      7.47313        -0.009202      0.001514     -0.033514
Li	     -1.03791     -5.34479      5.02860         0.006250     -0.004102      0.036241
Li	     -1.08435     -1.20459      0.99628         0.017543     -0.002427      0.002042
Li	     -0.93508     -3.10174      7.35114         0.002800      0.009446     -0.003459
Li	     -0.90241     -0.87473      9.41471        -0.017511      0.001214      0.000825
Mn	      1.05265      1.06211      5.24960        -0.003532      0.023975      0.014352
Mn	     -0.99356     -1.04067      5.20611        -0.000516      0.003944     -0.005114
Mn	      1.04348     -1.06845      3.10028        -0.004122     -0.020668     -0.017757
Ni	     -0.99201     -3.18868      3.07654        -0.009203      0.054507      0.043890
Ni	      3.13432     -1.06447      9.39543        -0.000853     -0.002310     -0.002533
Ni	      1.09748     -3.11609      9.42526         0.009741     -0.053629     -0.039690
O	      1.10328     -3.10653     11.44461         0.110087     -0.125194      0.140933
O	     -1.09600     -2.98322      5.21047         0.002405      0.044737      0.089364
O	      1.08543      1.03602      7.12331         0.104355     -0.088218     -0.061078
O	     -1.09300     -1.04723      7.14824        -0.008248     -0.081035     -0.037266
O	      1.06860     -2.93645      3.15203         0.105388      0.078615      0.100219
O	      0.94841     -0.96848      5.12045        -0.018200      0.014835      0.002890
O	      1.20170     -3.32253      7.29178        -0.002953     -0.043920     -0.091432
O	      1.08226     -1.09692      9.40839        -0.108745      0.118685     -0.142145
O	     -2.93552     -1.11289      5.29132         0.020659     -0.011397     -0.000771
O	     -0.89416     -1.03384      3.26356         0.010911      0.083791      0.038763
O	     -0.96303     -3.36911      9.34957        -0.105012     -0.082185     -0.099398
O	     -3.07258     -3.11640      3.28863        -0.103760      0.086743      0.058676
