# total energy = -197.12144738 eV
 
CRYSTAL
PRIMVEC
-0.018979 6.119748 6.110823 
6.237170 -0.027022 6.118769 
4.133465 4.060376 0.006747 
PRIMCOORD
36 1
Li	      8.26779      8.14303     12.16985         0.110601      0.010383      0.118120
Li	      8.27190     10.12280     10.21346        -0.112391      0.083465     -0.025894
Li	      6.26091      8.13015     10.18721        -0.137534      0.169741     -0.077913
Li	      6.24700      2.00608      8.10559         0.064496      0.030156     -0.025544
Li	      8.28570      4.03834      8.14537        -0.127206     -0.010243     -0.097945
Li	      4.13840      4.05753      4.07759         0.146292     -0.148904      0.052750
Li	      6.18709      8.14847      6.13551        -0.091673      0.043768      0.111977
Li	      4.16333      4.06510      8.17396         0.010851      0.034790     -0.061786
Li	      6.18612      6.13562      8.20306         0.033493      0.012634     -0.138006
Fe	      8.28886      6.11301      6.18058        -0.297040      0.138338     -0.291803
Fe	      8.29592      6.07999     10.11986         0.288523     -0.275556     -0.010172
Co	      4.13270      8.12358      8.17462        -0.367982     -0.128465      0.851663
Co	      2.07702      2.05913      4.08911         0.532945     -0.329268     -0.322747
Co	      6.22252      4.03922      6.15956        -0.003317      0.187238     -0.337888
Co	      4.15719      6.10639      6.13201         0.059299      0.106489      0.234533
Cu	     10.33692      4.02036      6.12219        -0.071152     -0.213551      0.234299
Cu	      6.18482     10.12858      8.16761         0.158731      0.041645      0.045359
Cu	      6.21638      4.05900     10.11120         0.217552     -0.198903     -0.012899
O	      5.98846      8.18704      8.22671         0.555362      0.292016     -0.081253
O	      6.29758      6.01707     10.29151        -0.279918     -0.191397      0.107214
O	      8.38944      8.00192     10.16565         0.367874      0.528026      0.013807
O	      2.20596      1.93920      2.17117        -0.304917     -0.309914      0.159629
O	      4.21556      3.94048      1.94345         0.225796      0.179098     -0.203272
O	      3.99320      2.06010      4.05570        -0.223167      0.113180      0.235382
O	      6.21318      4.19795      4.24589        -0.128525      0.164093     -0.270854
O	      6.13200      1.99291      6.07537         0.336830      0.201257     -0.100961
O	      8.17679      4.13031      6.11103        -0.257774     -0.314798      0.053222
O	      1.97682      4.05135      4.04061        -0.439813     -0.052580     -0.091933
O	      4.22945      6.14838      4.17716        -0.260733      0.346195      0.119419
O	      4.22811      4.11482      6.12854         0.285715      0.062060     -0.047731
O	      6.16581      6.13118      6.02173        -0.114649     -0.419002      0.116896
O	      6.23427      4.05653      7.91862        -0.018907     -0.025677      0.455076
O	      8.28041      6.09548      8.16562        -0.012231     -0.098159     -0.028488
O	      2.25348      6.08364      6.01307         0.096101     -0.081017      0.255654
O	      4.10289      8.03938      6.33301         0.053324      0.087170     -0.637638
O	      4.06612      6.18038      8.08224        -0.294859     -0.034306     -0.300273
