# total energy = -198.20540413 eV
 
CRYSTAL
PRIMVEC
0.046436 6.188236 6.403033 
6.094134 0.024545 6.424290 
4.043941 4.121381 0.034659 
PRIMCOORD
36 1
Li	      6.06700      4.12533      2.27278         0.059170      0.047682     -0.003549
Li	      4.05860      2.15061      2.20253        -0.111014      0.058148      0.065766
Li	      6.12103      8.30512     10.60329        -0.046306     -0.089346      0.055760
Li	      2.09043      4.07737      2.24743         0.055624     -0.012980      0.121790
Li	      2.07059      2.02954      4.16978         0.152168      0.071173     -0.001986
Li	      4.08641      4.09814      4.23393        -0.063024     -0.076668      0.065920
Li	      6.08590      4.17286      6.33506         0.100381     -0.051671     -0.043812
Li	      2.03888      6.15442      4.31446        -0.059658     -0.019668      0.088382
Li	      6.08506      8.23993      6.50879        -0.081398      0.013079     -0.066391
Fe	      4.12456      6.08498      2.19149        -0.028479      0.325770      0.213900
Fe	      0.09212      4.14018      4.26579        -0.228643     -0.172021      0.337383
Co	      8.13217      2.13548      6.46472         0.074185     -0.415060     -0.025481
Co	      8.07166      4.13650      4.35178         0.192804      0.419696     -0.146796
Co	      4.03805      2.21949      6.33209        -0.522462      1.019801      0.264760
Co	      4.07729      6.12872      6.35187        -0.188645     -0.122799     -0.570901
Co	      6.08306      6.18800      8.55840         0.030051     -0.012107     -0.204517
Cu	      4.11671      4.10758      0.16453         0.339162     -0.158416      0.015607
Cu	      8.05762      8.24627      8.55145         0.124919      0.070804     -0.033559
O	      2.19842      6.36523      6.44011        -0.378872      0.260260      0.349024
O	      6.15172      8.10086      8.58279         0.275704     -0.128420     -0.011172
O	      1.99467      2.12385      1.97608         0.018262      0.102653     -0.004986
O	      4.06124      4.18827      2.30464        -0.065155     -0.152505     -0.281283
O	      4.05309      1.90838      4.46945         0.191043     -0.487833     -0.949815
O	      6.29385      4.10197      4.30584        -0.104250     -0.161963      0.044603
O	      6.15964      1.97878      6.52049         0.007387      0.160857      0.020620
O	      8.18647      4.08595      6.23744        -0.215509      0.239467      0.127676
O	      1.85795      4.15991      4.28486         0.762383      0.029374     -0.149512
O	      4.06217      6.31578      4.28569        -0.021983     -0.141354     -0.362518
O	      4.05599      4.15252      6.23382         0.091429     -0.864271      0.346538
O	      5.97896      6.20181      6.62235         0.681643     -0.090317      0.337654
O	      5.99558      4.16416      8.62660        -0.396120      0.070896     -0.221651
O	      8.06222      6.21176      8.36719        -0.117263      0.187631      0.331905
O	      4.00933      8.32541      6.39262        -0.093795     -0.028566     -0.005861
O	      4.17551      6.14102      8.72337         0.026707     -0.261036      0.174953
O	      6.04932      6.13327     10.50099        -0.122830      0.110763      0.104429
O	      8.26268      8.37195     10.91854        -0.337617      0.258950      0.017119
