# total energy = -198.73887551 eV
 
CRYSTAL
PRIMVEC
-0.007642 6.131589 6.216507 
6.132478 -0.030716 6.239188 
4.081604 4.096360 -0.013723 
PRIMCOORD
36 1
Li	      6.09575      0.08792      6.26745        -0.095776     -0.001680     -0.064029
Li	      8.10129      2.04659      6.29855         0.017800      0.057689     -0.375646
Li	      6.11195      2.00574      4.26060         0.018406     -0.112524      0.003626
Li	      0.07264      1.95620      2.03536        -0.107299      0.126233      0.026789
Li	      8.21512      4.12287      8.21311        -0.114231      0.203023      0.043870
Li	      2.04813      2.04300      4.00459        -0.032214      0.213524      0.180449
Li	      4.14174      1.98938      6.25250         0.011771      0.022372     -0.087228
Li	      8.14132      6.11643     10.28807        -0.009879      0.084903     -0.060393
Li	      8.15704      8.11953      8.36479         0.116523     -0.075964      0.182209
Fe	      6.23805      3.93741      6.23764        -0.388236      0.172423      0.261234
Fe	      4.01498      6.11824      6.21369         0.443664      0.271424     -0.570923
Co	      6.11420      4.08139      2.12261        -0.243514      0.490021      0.037647
Co	      4.06472      4.06215      4.12713        -0.626106      0.060848      0.155630
Co	      6.09732      4.05702     10.33958         1.117617     -0.149125      0.305071
Co	      6.12522      8.15767      6.23456        -0.244184     -0.345314     -0.542103
Co	      6.21114      6.14218      8.31368         0.629073     -0.397215      0.289478
Ni	      4.03793      2.06327      2.07195         0.219889      0.052838     -0.139754
Ni	      4.10967      0.01170      4.17705         0.087578     -0.074094     -0.033731
O	      2.08411      1.85892      2.03996        -0.418006     -0.650309      0.034842
O	      4.18975      4.07173      2.19607         0.318245      0.143353     -0.181859
O	      4.05831      2.17141      4.07147        -0.013877     -0.015704      0.323677
O	      6.10354      4.08692      4.09932         0.513070     -0.132501     -0.460454
O	      6.10998      2.09222      6.26143         0.029994     -0.116982      0.060473
O	      8.11355      4.09155      6.15189         0.354913      0.062036      0.435621
O	      1.94543      4.08158      4.29553        -0.207731      0.012930      0.125627
O	      4.03962      6.03696      4.21593         0.087520     -0.107414      0.067315
O	      4.02363      4.11189      6.08674        -0.049343     -0.126545      0.136786
O	      6.05146      6.17308      6.39780        -0.012025      0.052463      0.197893
O	      6.16785      4.24730      8.29335        -0.067918      0.108805     -0.219434
O	      7.98879      6.15150      8.28407        -0.368328     -0.021516     -0.031187
O	      2.05510      5.98097      6.39956        -0.286078     -0.050597      0.419011
O	      4.20976      8.13026      6.17366        -0.068873     -0.062418      0.017929
O	      4.06674      6.12278      8.28960        -0.250952     -0.101905     -0.202951
O	      6.08343      8.12730      8.15832         0.215105      0.320727      0.105647
O	      6.10158      6.11152     10.17464         0.180457      0.124300     -0.468182
O	      8.39057      8.18288     10.39272        -0.757055     -0.038107      0.027049
