# total energy = -202.10045076 eV
 
CRYSTAL
PRIMVEC
0.067057 6.053115 6.280277 
6.259560 0.005210 6.344077 
4.147660 4.051179 0.029264 
PRIMCOORD
36 1
Li	      8.34194      8.13939     12.51656         0.045749      0.054944     -0.063350
Li	      6.27135      4.01230      2.33075        -0.063677      0.023902      0.029205
Li	      8.24982      4.07043      4.31225         0.007543      0.011688      0.084500
Li	      6.24759      2.08892      4.30321         0.082247     -0.038796      0.023179
Li	      4.28396      3.99095      4.27545        -0.019207     -0.030964     -0.005292
Li	      4.25508      2.05794      6.15180        -0.067060     -0.065827     -0.073030
Li	      6.25193      3.98259      6.25853         0.087621     -0.017494     -0.083134
Li	     10.35153      8.11044     10.50887         0.026392      0.135112      0.218745
Li	      8.36663      8.09124      8.49390        -0.063435      0.037242     -0.004528
Fe	      8.31751      4.05418      8.39508         0.713628     -0.167160     -0.164157
Fe	      4.20516      5.96465      6.30202        -0.053825      0.412569      0.000039
Co	      6.27234      0.03312      6.35614        -0.143375     -0.702597      0.142406
Co	      4.26262      8.06964      8.39214         0.052323      0.296410     -0.200655
Co	      0.03405      2.04271      2.11905        -0.137567      0.116484     -0.509901
Co	      2.23416      1.98424      4.20052         0.368039     -0.010856     -0.008696
Co	      8.34194      6.11576     10.59950        -0.888407     -0.077917      0.338682
Co	      2.11726      4.02700      6.26703        -0.195785      0.090957     -0.132318
Cu	      6.28280      6.07263      8.44731        -0.195238      0.104709      0.111194
O	      8.34066      7.93078     10.55975         0.062578     -0.144633     -0.074370
O	      2.20276      2.04722      2.26019        -0.400817     -0.034021      0.108650
O	      4.13689      3.96868      1.97444        -0.039837      0.552871      0.347043
O	      4.20184      2.03327      4.01681        -0.892608     -0.147410      0.123548
O	      6.24987      4.19311      4.27939         0.200942      0.086657     -0.063705
O	      6.25960      1.88172      6.44900         0.156935      0.597587      1.170479
O	      8.51465      4.06546      6.44025        -0.147520      0.007376      0.088450
O	      2.09413      4.06446      4.26422         0.048568      0.042403      0.054215
O	      4.00835      6.07544      4.24389         0.383734     -0.084403     -0.711214
O	      4.04353      4.06513      6.32630         0.011376     -0.206094      0.058560
O	      6.21195      6.15769      6.13329         0.098912      0.061196     -0.284838
O	      6.36217      4.09539      8.38708        -0.317675     -0.446038     -0.008320
O	      8.30065      6.04814      8.69331         0.156297      0.157673     -0.040019
O	      2.09637      5.98260      6.20291         0.022978     -0.024514     -0.154642
O	      4.30489      8.15167      6.40807         0.141506     -0.340219      0.164859
O	      4.28499      6.15725      8.27849         0.260017     -0.136085      0.211529
O	      6.16662      8.02728      8.22816         0.058557     -0.200284     -0.065126
O	      6.44762      6.04935     10.78272         0.640092      0.085533     -0.627990
