# total energy = -201.72475193 eV
 
CRYSTAL
PRIMVEC
0.004681 6.169966 6.065920 
6.280585 0.034886 6.035562 
4.216984 4.123530 -0.007231 
PRIMCOORD
36 1
Li	      4.27132     10.27150      6.12482         0.010609      0.047961     -0.003553
Li	      2.14516      2.04630      0.05963        -0.044745     -0.000934      0.001698
Li	      2.12527      6.13675      8.01672        -0.001365     -0.044225      0.052525
Li	      4.18017      8.24686      8.02905         0.006476      0.036799      0.025305
Li	      6.30450      8.25869     10.05911        -0.017967      0.066063      0.015040
Li	      0.03794      2.02673      1.98662        -0.010605     -0.036633     -0.048195
Li	      4.24508      2.06527      6.05797         0.052712      0.031447     -0.001532
Li	      6.23842      8.34029      6.12733         0.007018     -0.011934      0.010270
Li	      8.31003      8.29294      8.05767        -0.031983     -0.026892      0.033324
Fe	      6.30449      4.06041      6.04768        -0.062268     -0.243237     -0.030885
Fe	      6.28691      6.32500      8.05184         0.109757      0.039977      0.031995
Co	      8.41395     10.30580     10.08477         0.006149      0.041121     -0.075137
Co	      2.11284      4.10015      2.03122         0.118736     -0.080961      0.023473
Co	      2.07192      2.07042      4.00465         0.073612     -0.093608     -0.205728
Co	      4.22070      4.03585      3.97469         0.048275      0.052987     -0.060525
Co	      4.25332      8.21895      4.05263        -0.131004      0.034770      0.187695
Co	      8.37722      6.30025     10.11439        -0.165198     -0.011899      0.045888
Ni	      4.16336      6.21134      6.07004        -0.042492     -0.157128      0.093054
O	      2.07987      2.19015      2.11706        -0.023495      0.132159      0.198381
O	      4.03686      4.13368      2.12442        -0.139837     -0.067536      0.186726
O	      3.97192      2.05586      4.05000        -0.145586     -0.023218     -0.022911
O	      6.25383      4.27483      3.97676         0.066323      0.095498      0.018498
O	      6.25907      2.24787      5.98799        -0.025824     -0.131095      0.027183
O	      8.26282      4.15217      6.09468         0.159724      0.020863     -0.128572
O	      2.04490      4.02457      3.96251        -0.067170     -0.001473     -0.076396
O	      4.26727      6.25756      4.05946         0.086387     -0.009362     -0.269138
O	      4.30875      4.20383      5.91264        -0.034468     -0.323413     -0.130544
O	      6.24178      6.03837      6.00399         0.109445      0.238966     -0.068510
O	      6.43956      4.20835      8.11074         0.057831      0.026597      0.081738
O	      8.33404      6.12085      8.19500         0.065815     -0.070488      0.068591
O	      2.15291      6.18463      5.92370        -0.029553     -0.027115     -0.141894
O	      4.24614      8.12702      5.94120         0.057159      0.455662     -0.234742
O	      4.29624      6.17386      8.09099        -0.106015      0.004567      0.385069
O	      6.33387      8.18973      8.08669        -0.000541      0.027258     -0.006222
O	      6.36320      6.06469     10.10764        -0.068862     -0.085716      0.023687
O	      8.64158      8.28131     10.05735         0.112947      0.094173     -0.005655
