# total energy = -204.63630593 eV
 
CRYSTAL
PRIMVEC
-0.028432 6.037057 6.235747 
6.081794 0.007079 6.199050 
4.072709 4.019941 -0.013782 
PRIMCOORD
36 1
Li	      2.04240      0.01227      2.09158        -0.061715      0.008322     -0.012122
Li	      8.02407      4.04160      8.35524         0.054259     -0.028763      0.052182
Li	      3.95861      4.05306      4.18841         0.062117     -0.014317     -0.011294
Li	      6.02593      4.03581      6.30135         0.077585      0.004150     -0.051895
Li	      6.14095      4.02492     10.23659        -0.068868      0.042185      0.122057
Li	      2.02803      5.91247      4.12158        -0.016801     -0.000612      0.106853
Li	      2.02720      4.00040      6.13533        -0.105461      0.008243     -0.004088
Li	      8.13693      8.00819      8.31225         0.025465     -0.060618     -0.017847
Li	      6.09751      5.99839      8.29759         0.062521     -0.001820     -0.015996
Fe	      6.03277      6.10482      4.14742         0.133508     -0.274828     -0.003838
Fe	      4.01482      5.88165      6.27459         0.060924      0.456750     -0.034150
Co	      6.08776      6.04984     12.38442         0.001151     -0.084096     -0.122788
Co	      8.09832      2.05445      6.19266         0.032754     -0.020532     -0.151466
Co	      4.13514      8.11011      8.28727        -0.577381     -0.027400     -0.046443
Co	      4.05805      6.03818     10.34701         0.009517     -0.064170      0.031391
Co	      6.10886      2.05887      4.12117         0.111561     -0.086646     -0.371066
Co	     10.09406      6.04901      8.30053         0.104039      0.157843      0.031948
Co	      8.09388      6.07497      6.23426         0.100709      0.075860     -0.128115
O	      1.97615      2.02372      1.98286         0.330720      0.051619     -0.060832
O	      4.06825      4.08166      1.86983         0.013864     -0.294994     -0.069190
O	      4.12294      1.95289      4.19122         0.047581      0.020150      0.169301
O	      6.24394      4.00782      4.15262         0.010980     -0.012699     -0.098722
O	      6.10808      1.93134      6.05228         0.703312     -0.031014      0.162750
O	      8.27235      4.05615      6.01860        -0.028560     -0.529518     -0.065787
O	      2.02669      3.94201      4.13286         0.043098      0.205328     -0.030860
O	      4.09099      5.99266      4.27995        -0.127228     -0.022522     -0.351320
O	      4.01001      3.97546      6.23659         0.089201      0.387500      0.146390
O	      6.13063      6.01980      6.19243        -1.147062     -0.142660     -0.035752
O	      6.03991      3.85489      8.28010         0.019096     -0.130575     -0.011606
O	      8.20243      6.00609      8.09627         0.049084      0.001495      0.295624
O	      1.97770      6.17693      6.19264        -0.041274     -0.026636      0.065254
O	      3.90552      8.10864      6.27986         0.012472      0.052796     -0.189810
O	      4.03761      6.11606      8.31590         0.241808      0.444613      0.319775
O	      5.99243      8.08899      8.45468        -0.194295     -0.100526      0.362140
O	      5.99886      6.14804     10.43963        -0.018188      0.011533      0.009983
O	      7.98674      8.16545     10.48570        -0.010493      0.026558      0.009339
