# total energy = -181.15280630 eV
 
CRYSTAL
PRIMVEC
-0.043635 6.450127 6.008309 
6.136649 -0.046558 6.011383 
4.081175 4.291493 -0.021010 
PRIMCOORD
36 1
Li	      4.11729      2.26174      1.92386        -0.216709     -0.034809      0.028151
Li	      6.07249      2.14490      7.98562        -0.078319      0.153676      0.169014
Li	      8.15647      4.34145      8.00397         0.003982      0.082909      0.107611
Li	      4.04637      4.27378      4.03199        -0.114914      0.086729     -0.038547
Li	      6.06612      4.26455      6.12018        -0.014066      0.079188      0.031026
Li	      6.10425      4.20497      9.96609         0.184468     -0.145571     -0.069789
Li	      8.16630      6.45491      9.90898         0.110678     -0.191671     -0.087147
Li	      8.11390      8.44839      7.98480         0.226453     -0.135534     -0.074075
Li	      6.15625      6.17550      8.02792         0.019584     -0.112922     -0.014321
Fe	      4.07795      6.43557      9.98651        -0.215864      0.433214     -0.093130
Fe	      6.06497      6.43913      3.95220        -0.179396      0.070623     -0.117681
Cu	      2.07532      2.20231      0.02528         0.225468      0.066547      0.443124
Cu	      4.06044      6.35134      6.02939         0.111997     -0.057772     -0.175829
Ni	      6.12302      6.45923     11.99302        -0.160464     -0.555008      0.329916
Ni	      1.99464      6.44731      7.96119         0.029723      0.355212      0.190173
Ni	      6.11944      2.15847      3.96531        -0.046107      0.091509     -0.588257
Ni	      8.14632      6.40155      6.07855        -0.130092      0.035632      0.091130
Ni	      6.09966      8.52804      6.00881        -0.016617     -0.245745     -0.510847
O	      8.13431      6.36700      7.93275         0.052583      0.096613      0.176708
O	      8.09368      8.73675     10.15337        -0.594465     -0.344540     -0.246703
O	      2.07289      1.96302      1.94435         0.074500      0.554755     -0.372149
O	      4.24591      4.32659      1.82297        -0.647816      0.083024      0.664955
O	      4.01632      2.06589      4.12575         1.227738     -0.011111     -0.148495
O	      6.17713      4.41041      3.99017         0.052432     -0.967522     -0.084271
O	      6.29132      1.94590      5.95799         0.065718      0.888617     -0.415842
O	      8.20481      4.49074      5.96893         0.138514     -0.191326      0.080816
O	      2.02073      4.00300      3.98559        -0.061749      0.890603     -0.094464
O	      4.14509      6.34584      4.16034        -0.695844     -0.042392      0.084851
O	      4.01975      3.96789      6.05644         0.160101      0.287007      0.081626
O	      5.93058      6.48166      6.01147         0.033177     -0.129491      0.217132
O	      6.08432      4.18778      8.03592        -0.024450     -0.035366      0.085231
O	      2.18196      6.25492      5.91810        -0.277169      0.114072      0.147449
O	      3.94675      8.90114      5.95232        -0.182339     -0.615419     -0.098636
O	      3.94563      6.44379      7.95518         0.624550     -0.034331     -0.093640
O	      6.05119      8.83747      8.02466         0.070049     -0.878957      1.223950
O	      6.04450      6.54929     10.05953         0.244666      0.359555     -0.829041
