# total energy = -184.69188021 eV
 
CRYSTAL
PRIMVEC
0.049984 6.153369 6.202388 
6.202038 0.035186 6.217403 
4.145644 4.122961 0.012565 
PRIMCOORD
36 1
Li	      4.22036      4.15440      0.12134        -0.000491      0.009871     -0.069216
Li	      1.98607      0.05256      1.99179         0.020488     -0.039288     -0.003127
Li	      6.23441      8.24414     10.25774        -0.024327      0.006243      0.007151
Li	      2.16131      4.13800      2.11567         0.009005      0.001928      0.014710
Li	      4.09219      4.14598      4.14949        -0.055855      0.017843      0.042073
Li	      4.14868      2.12227      6.25245         0.009966     -0.047814     -0.016611
Li	      2.14042      6.11311      4.19815        -0.000698     -0.061979      0.025269
Li	      2.19502      4.22791      6.19939         0.048586      0.056362     -0.039779
Li	      4.11183      6.11448      6.24554        -0.005296      0.000701     -0.018657
Fe	      4.10385      0.05258      4.13640         0.279416     -0.107008      0.139241
Fe	      4.25449      8.19858      4.21808        -0.089289      0.159984      0.042028
Cu	      4.21144      8.28588      8.21796        -0.046436      0.009053      0.012609
Cu	      4.13720      6.11452      2.10280         0.014794     -0.009137     -0.041176
Cu	      6.26797      6.18204      8.22657         0.035111      0.043151     -0.081372
Ni	      2.04220      2.03598      0.03468        -0.007526      0.089980     -0.057480
Ni	      2.08710      2.07043      4.14604        -0.029287     -0.006579      0.220791
Ni	      6.22387      4.10085      6.23000         0.054133     -0.112024     -0.128944
Ni	      4.12836      4.12033      8.22558        -0.055516      0.075352      0.047170
O	      8.23474      6.24989      8.31777         0.029893     -0.076545      0.000496
O	      2.09984      6.34034      6.17720         0.018184     -0.256979     -0.030635
O	      6.21058      8.13938      8.18203        -0.083202      0.091353     -0.024981
O	      2.17578      2.09592      2.09790        -0.095689     -0.069331     -0.186368
O	      4.14313      4.11488      2.12104         0.032158      0.097626      0.014456
O	      4.13821      1.93000      4.07849         0.194973      0.360874     -0.062485
O	      6.37552      4.16421      4.14764        -0.271604     -0.212112     -0.066306
O	      6.30312      2.15910      6.38158        -0.173559     -0.105756      0.047770
O	      8.15274      4.00695      6.17172         0.129960      0.172116      0.166239
O	      1.99996      4.06095      4.26037         0.148655      0.240217     -0.024767
O	      4.18964      6.21255      4.00041        -0.175886     -0.060245      0.069058
O	      4.34290      4.10398      6.24297        -0.267735     -0.009968     -0.007527
O	      6.25652      5.99489      6.22975         0.010669      0.143323     -0.009205
O	      6.20001      4.16777      8.35943         0.074137     -0.150665     -0.026172
O	      4.02030      8.23896      6.17515         0.165383      0.003028      0.216760
O	      4.25768      6.15996      8.29532         0.067932      0.108216     -0.248045
O	      6.09543      6.15582     10.26562         0.077985     -0.064710      0.210168
O	      8.34053      8.39434     10.33490        -0.039035     -0.297082     -0.133137
