# total energy = -138.90582485 eV
 
CRYSTAL
PRIMVEC
2.073062 2.072551 0.000045 
-8.516815 8.516159 -0.000600 
0.028822 -2.101428 6.136555 
PRIMCOORD
24 1
Li	     -5.27404      7.35213      5.09497         0.013097     -0.014691      0.006498
Li	     -3.38479      5.45425      1.14650        -0.007229      0.009520      0.001592
Li	     -5.39556      5.39558      3.06117         0.007051     -0.006050      0.017559
Li	     -1.18238      3.24439      5.06824        -0.003264      0.010676      0.004166
Li	     -7.25730      9.33302      1.01766        -0.007410      0.003758     -0.020789
Li	     -1.03160      1.03156      3.03029         0.001320     -0.002145     -0.015249
Mn	      1.03536      1.03717      5.08662        -0.000029      0.000531      0.007204
Mn	     -1.10901      3.17902      1.05229         0.009893     -0.013479      0.006376
Mn	     -3.20719      5.27569      5.10313        -0.011630      0.017155      0.007273
Ni	     -3.22024      3.21513      3.04169         0.012583     -0.010525     -0.022377
Ni	     -5.35836      7.43099      1.06363         0.031713     -0.032158     -0.031547
Ni	     -7.40631      7.40813      3.03880        -0.047557      0.040549      0.050412
O	      0.88467     -0.88524      5.18092        -0.041819      0.047006      0.069361
O	     -5.33337      5.33079      0.88016         0.088139     -0.095229     -0.046266
O	     -5.39399      7.46854      3.11476         0.096921     -0.105177      0.125905
O	     -3.29317      3.28800      5.11045        -0.005102      0.013277      0.113273
O	     -1.21025      1.20831      0.95895        -0.006094      0.005725     -0.020522
O	     -1.11744      3.18681      2.92606         0.100586     -0.106234     -0.051431
O	     -7.41022      7.41143      0.98834        -0.104577      0.104787     -0.109348
O	     -3.17259      5.24001      3.16185        -0.106473      0.110864      0.044402
O	     -5.15008      5.14643      5.09244         0.025270     -0.024897     -0.076514
O	     -3.05138      3.04730      0.96122         0.021832     -0.013440     -0.109670
O	      1.04290      1.03114      3.23203        -0.085782      0.084939      0.061642
O	     -0.96625      0.96600      5.19428         0.018561     -0.024764     -0.011949
