# total energy = -184.39647513 eV
 
CRYSTAL
PRIMVEC
-0.022254 6.166114 6.254462 
6.216341 -0.029321 6.261861 
4.126484 4.098025 -0.002325 
PRIMCOORD
36 1
Li	      8.24365      2.03730      6.25946        -0.072914      0.025016     -0.016519
Li	      4.13809      2.05087      2.08780        -0.034487     -0.001143      0.026557
Li	      6.20699      2.06070      8.34215         0.026627      0.049340      0.034073
Li	      8.17839      4.09082      8.26846        -0.075741     -0.013626      0.043156
Li	      8.28340      6.12756      6.35536         0.029459      0.019265      0.098758
Li	      6.20499      4.06192      6.42408        -0.003769     -0.063724      0.051828
Li	      6.15746      4.09104     10.28114        -0.012404     -0.058293     -0.075487
Li	      8.28407      8.18848      8.37435         0.057497     -0.011056     -0.120074
Li	      6.23907      6.05764      8.29465         0.030841     -0.064484      0.001090
Fe	     10.29285      4.05366      6.27414         0.187874     -0.009048      0.166359
Fe	      2.09740      2.03150      4.18286        -0.069561      0.090334      0.158827
Cu	      2.08912      0.01468      2.09227         0.009655      0.083718     -0.144201
Cu	      6.18997      2.03082      4.17179        -0.221312      0.253210      0.109463
Cu	      4.16026      4.08566      4.21107         0.110547     -0.063685     -0.319732
Cu	      2.05829      4.11465      6.26991         0.117491      0.006523      0.076712
Cu	      8.24857      6.14446     10.31792         0.108429      0.205650     -0.102261
Ni	      8.26435     10.18855     10.39594        -0.110085      0.256401      0.171529
Ni	      4.10906      6.18709      6.29696         0.025962      0.087416      0.061922
O	      8.26895      6.11747      8.49279         0.014085     -0.090416     -0.822926
O	      3.93950      6.18948      8.34345         0.029464      0.008147      0.140367
O	      6.18891      8.40108      8.28084        -0.063981     -0.111374      0.265581
O	      8.09876      8.17930     10.39872         0.351425     -0.111772      0.060203
O	      2.08002      1.88793      2.26186         0.039002      0.028477     -0.357614
O	      4.33361      4.10945      2.06005        -0.123815     -0.092702      0.165052
O	      4.15034      2.07216      4.19351         0.079517     -0.224184      0.034215
O	      6.18530      4.09510      4.42065         0.156130     -0.170326      0.039283
O	      6.21121      1.80051      6.24007         0.054287      0.556530     -0.262862
O	      8.44609      4.01261      6.21770        -0.318222     -0.059744     -0.029540
O	      2.17564      4.04640      4.16411        -0.207723      0.045095     -0.040365
O	      4.18232      6.06976      4.25147        -0.183922      0.303629     -0.134135
O	      4.02178      4.15775      6.20373        -0.229221     -0.140792      0.178475
O	      6.14546      6.26172      6.19588         0.057413     -0.015488      0.128965
O	      6.19959      4.07517      8.32753         0.002470      0.000106      0.016256
O	      1.98915      6.11484      5.96151        -0.103459     -0.205282      0.564638
O	      4.18248      8.32924      6.21855         0.229280     -0.274922     -0.054278
O	      6.15548      6.22016     10.39707         0.113162     -0.236797     -0.113315
