# total energy = -185.52273902 eV
 
CRYSTAL
PRIMVEC
0.008449 6.124600 6.220829 
6.213084 0.003337 6.226420 
4.143884 4.088743 0.000197 
PRIMCOORD
36 1
Li	      6.20116      0.06468      6.20834        -0.037916      0.018905     -0.008579
Li	      8.20076      2.07808      6.19366        -0.078730      0.129065      0.043627
Li	      4.13882      2.07143      2.11600        -0.087809      0.047372      0.073683
Li	      6.20598      2.04467      8.26685        -0.069324      0.021425     -0.005406
Li	      6.15598      6.16288      4.14432         0.008766     -0.000764     -0.026905
Li	      4.22099      2.03438      6.23854         0.018551     -0.073789      0.006597
Li	      6.21860      4.00810      6.23483         0.154366     -0.060686     -0.028314
Li	      2.11699      6.12853      4.12043        -0.013111      0.044637     -0.082127
Li	      8.27888      8.14917      8.32888         0.086112     -0.098085      0.041633
Fe	      2.05587      0.14056      2.05029        -0.106188     -0.052971      0.178526
Fe	      8.28527      4.11328      4.21656        -0.047126      0.213362     -0.342868
Cu	      8.31375      4.05141      8.22773         0.086411     -0.287780     -0.039079
Cu	      4.09377      4.11334      4.17397         0.182100     -0.296047     -0.418199
Cu	      6.21852      8.15894      6.25302        -0.029282      0.060234      0.067410
Cu	      6.23948      6.13409      8.27784         0.198492     -0.235104      0.123116
Cu	      6.25185      2.03079      4.21207        -0.074621      0.027124     -0.184188
Cu	      4.17103      8.13871      4.15991        -0.174852     -0.204218     -0.313005
Ni	      4.14323      6.13353      6.23613        -0.046982      0.000238      0.035881
O	      8.21050      5.95387      8.27054         0.203514      0.499352     -0.000242
O	      6.24253      8.17753      8.31519        -0.014400      0.080004      0.162871
O	      6.17960      6.14767     10.27851         0.178602      0.095956      0.031218
O	      8.31015      8.25833     10.35893         0.064038     -0.439774     -0.012733
O	      2.08515      2.05068      2.03322         0.017013      0.271903     -0.055166
O	      4.10740      4.09803      2.24246         0.081542     -0.008088     -0.139204
O	      4.24110      1.99393      4.16051         0.078063      0.436480     -0.048484
O	      6.26125      4.06580      4.03406        -0.256846     -0.096408      0.246445
O	      6.22690      2.04439      6.12213         0.022883     -0.018804     -0.033282
O	      8.28362      4.08942      6.01328        -0.009971     -0.042510      1.240780
O	      2.04702      4.07091      4.26293        -0.028177     -0.062995     -0.432162
O	      4.12663      6.09639      4.18966         0.009788      0.209078     -0.011679
O	      4.05472      4.12393      6.06706        -0.295276     -0.236103      0.424030
O	      6.15451      6.18664      6.34301         0.095396      0.397035     -0.038229
O	      6.34050      4.12832      8.42936        -0.279896     -0.144681      0.096484
O	      2.09573      6.05423      6.35915        -0.208959     -0.473934     -0.213071
O	      4.24179      8.13997      6.06905         0.308695      0.261881      0.126250
O	      4.11713      6.13756      8.40966         0.065135      0.018691     -0.465630
