# total energy = -185.69938659 eV
 
CRYSTAL
PRIMVEC
-0.000598 6.195868 6.207035 
6.202152 -0.008905 6.215339 
4.127625 4.128972 0.001191 
PRIMCOORD
36 1
Li	      4.13010     10.28299      6.20985        -0.063811      0.106654      0.021746
Li	      2.09896      8.27591      6.21522        -0.050021      0.057684      0.005160
Li	      2.05661      6.20852      8.21184        -0.105830      0.075457     -0.145712
Li	      8.27498      4.14086      8.27514         0.043084      0.052333     -0.073382
Li	      4.07725      4.14929      4.10860        -0.099211      0.090576     -0.124248
Li	      8.25805      6.15129      6.28387         0.075520     -0.132607      0.105097
Li	      6.21354      4.18311     10.35152         0.057173     -0.018817      0.029167
Li	      2.04067      6.15328      4.14639         0.056655     -0.058704     -0.023150
Li	      6.23210      6.16167      8.32607         0.118786     -0.083796      0.075638
Fe	      6.21442      8.19912     10.36947        -0.103412     -0.064990      0.407944
Fe	      4.11359      6.11394      2.07927         0.104405      0.031798     -0.143672
Cu	      4.10137      2.11648      2.04901        -0.115853      0.259773     -0.020819
Cu	      2.04981      2.09659      4.12540        -0.038706      0.073844     -0.424304
Cu	      6.22660      4.11533      6.22004        -0.199288      0.013278      0.361916
Cu	      2.06399      4.15451      6.20473         0.090215      0.105417     -0.039573
Cu	      4.10512      6.20257      6.20216        -0.121885      0.264944     -0.106391
Cu	      8.26484      8.24968      8.28668         0.060301     -0.424426      0.372218
Cu	      4.14651      6.18319     10.34665         0.414430     -0.091531      0.280132
O	      2.22237      6.13437      6.15884        -0.334767     -0.082368      0.089477
O	      4.19110      8.20928      6.35652        -0.162332     -0.265002     -0.065611
O	      4.13764      6.13686      8.34428        -0.025799      0.126253     -0.044208
O	      6.21358      8.25601      8.31271         0.010114      0.033021     -0.269585
O	      6.13463      6.26185     10.39541         0.002320     -0.121151     -0.109500
O	      8.21691      8.32085     10.27230         0.017367     -0.057219     -0.061558
O	      1.99440      2.08540      2.14605         0.407130     -0.012214     -0.056309
O	      4.10244      4.23910      2.03521         0.072965     -0.738574      0.017675
O	      4.12735      2.02271      3.99274         0.106962      0.001007     -0.010802
O	      6.25905      4.10635      4.24130        -0.249760      0.159268      0.179004
O	      6.21443      2.11168      6.18827        -0.055839      0.009274     -0.305334
O	      8.18953      4.14852      6.11109         0.043452      0.070681     -0.161066
O	      2.06185      4.05021      4.26716         0.080207     -0.048296      0.314826
O	      4.21345      6.19356      4.05409        -0.170011     -0.001903      0.378700
O	      4.10779      4.17518      6.29572         0.279094      0.010788     -0.189245
O	      6.06507      6.18093      6.13352         0.437168      0.009774      0.199493
O	      6.15180      4.01478      8.19098         0.058341      0.495580     -0.413838
O	      8.38614      6.23704      8.31421        -0.639167      0.154196     -0.049889
