# total energy = -183.37528614 eV
 
CRYSTAL
PRIMVEC
0.027266 6.177604 6.189137 
6.155766 0.031668 6.184649 
4.111505 4.123082 0.013611 
PRIMCOORD
36 1
Li	      0.05476      0.01561      0.06449        -0.034693      0.004027      0.054423
Li	      2.06390      6.21585      8.20194        -0.022402      0.075958      0.039555
Li	      4.13618      8.24593      8.24074        -0.033304      0.013240      0.026973
Li	      0.03160      2.02545      2.03108         0.001770     -0.020592     -0.013809
Li	      6.11674      6.17909      4.14516        -0.010626     -0.035231     -0.032692
Li	      4.10152      2.15252      6.18521        -0.044082     -0.044359      0.009253
Li	      6.10568      4.11161      6.18664         0.009696      0.038222     -0.017395
Li	      4.12136      6.16962      6.18468         0.010466     -0.021570      0.055957
Li	      4.12557      4.16614      8.14135         0.062790      0.006086     -0.039697
Fe	      4.04242      0.12401      4.14767         0.067613     -0.010270      0.112121
Fe	      8.24948      4.13154      8.16876        -0.117604      0.139560     -0.099535
Ni	      2.11037      8.21334      6.20793         0.038458      0.023833      0.139671
Ni	      6.17352      2.10319      4.13795        -0.011448     -0.002125     -0.046585
Ni	      4.12441      4.14109      4.15926         0.073657     -0.074951     -0.147905
Ni	      4.14325      8.17126      4.15112        -0.009398      0.019688     -0.106271
Ni	      2.09510      6.15426      4.17198        -0.076527      0.029152     -0.074962
Ni	      6.17147      8.25347      6.27175        -0.051181      0.037326     -0.026895
Ni	      6.16976      6.20219      8.25566         0.013038     -0.100602      0.184338
O	      2.03746      2.22913      1.95721        -0.033413     -0.472197     -0.020188
O	      3.95754      4.14522      2.17751         0.411413      0.023180      0.039286
O	      4.16078      2.07213      4.16478        -0.013699      0.229221      0.000706
O	      6.22635      4.14740      4.06342        -0.156799      0.018955     -0.016795
O	      6.31733      2.07206      6.09785        -0.056917      0.020849      0.067455
O	      8.24881      4.14657      6.14813         0.024259      0.054256      0.010280
O	      2.03714      4.09772      4.13308        -0.024725     -0.094488      0.059822
O	      4.07694      6.14712      4.08893         0.104965     -0.023188      0.034925
O	      4.03399      4.13941      6.09880         0.096440     -0.001455      0.022608
O	      6.13904      6.31947      6.42161         0.009798     -0.138230     -0.290165
O	      6.26873      4.28921      8.27479        -0.267189     -0.106283      0.031167
O	      8.08198      6.08258      8.28251         0.091235      0.310427      0.019227
O	      2.05660      6.10751      6.20122         0.050931      0.020046      0.035640
O	      4.10740      8.24381      6.12866        -0.030329     -0.048101      0.033471
O	      4.28918      6.17877      8.40424        -0.114624     -0.012079     -0.227326
O	      6.21685      8.07650      8.30939         0.012757      0.174553      0.041382
O	      6.16362      6.18142     10.16671         0.030938     -0.013407      0.104613
O	      8.26604      8.28221     10.41124        -0.001263     -0.019450      0.037347
