# total energy = -191.00772265 eV
 
CRYSTAL
PRIMVEC
0.031610 6.236365 6.120632 
6.245478 0.021049 6.131217 
4.171000 4.172017 0.006729 
PRIMCOORD
36 1
Li	      6.18954      0.11174      6.04664        -0.022913      0.025734     -0.052875
Li	      8.32951      4.15084      4.18213        -0.026088      0.061556     -0.038887
Li	      6.24639      2.12861      4.19568        -0.060633      0.034554     -0.028962
Li	      6.24797      6.23839      4.16460         0.070794     -0.108739      0.039617
Li	      4.22469      4.14922      4.15918         0.070905     -0.081666     -0.022885
Li	      4.23685      2.09159      6.03941         0.005682     -0.028798     -0.102183
Li	      6.22811      4.13098      6.03077         0.042904     -0.017888     -0.083803
Li	      8.36119      6.30647     10.21799        -0.036177      0.030917      0.004157
Li	      4.19506      4.17377      8.16886        -0.023360      0.066955      0.009470
Fe	      6.25232      4.15572      2.15901        -0.019576     -0.102480      0.088545
Fe	      4.15752      2.12004      2.16274         0.055983     -0.033336      0.107553
Fe	      6.32244      6.24022      8.19188        -0.110084      0.036900     -0.044246
Co	      8.32926      4.18715      8.16606         0.123892      0.209133      0.209891
Cu	      4.19651      6.21696      6.08912         0.147139     -0.145714     -0.261944
Ni	      8.31811      8.35532     12.19464         0.016701      0.034700     -0.010207
Ni	     10.37456      6.27862      8.14366        -0.016724      0.047970      0.231308
Ni	     10.42009      8.35482     10.21312         0.015298      0.279326     -0.140042
Ni	      2.14113      4.17716      6.05516        -0.045831     -0.051448      0.018851
O	      4.11331      4.26181      6.10747         0.053823     -0.036600      0.028589
O	      2.09979      2.14163      2.03623        -0.048679      0.204162     -0.036482
O	      4.09396      4.13799      2.08334         0.038500      0.074051      0.025790
O	      4.16616      2.07323      3.95849         0.003317     -0.013998      0.291895
O	      6.26051      4.18708      3.96183        -0.015377      0.031490      0.270589
O	      6.32439      2.08454      6.16338         0.024689     -0.028969     -0.167404
O	      8.37562      4.10737      6.31665        -0.101124      0.032943     -0.075805
O	      1.94547      4.17956      3.95444         0.052774     -0.084892     -0.112129
O	      4.16904      6.42652      4.11217        -0.024714     -0.163564     -0.274804
O	      6.19769      6.31405      6.19891        -0.056289      0.045366      0.000873
O	      6.40795      4.18742      8.15355        -0.036243     -0.034954     -0.029649
O	      8.32823      6.08166      8.11147         0.054707     -0.279028      0.020451
O	      2.16122      6.25702      6.25954        -0.002664      0.036715     -0.125453
O	      4.19443      8.28948      6.23654        -0.058860     -0.112167     -0.154289
O	      4.19479      6.30548      8.09413        -0.031160      0.127279      0.218925
O	      6.22421      8.33177      8.15654         0.056800     -0.034838      0.006125
O	      6.26703      6.12190     10.10740         0.040700      0.021685      0.177827
O	      8.52921      8.35006     10.21743        -0.138113     -0.042356      0.011594
