# total energy = -191.96738918 eV
 
CRYSTAL
PRIMVEC
0.000154 6.104106 6.370734 
6.180638 0.010256 6.360281 
4.132193 4.074441 -0.004563 
PRIMCOORD
36 1
Li	      8.24920      2.12577      6.34151        -0.058379     -0.002179     -0.055785
Li	      8.26137      4.05202      4.32741         0.034711     -0.020761      0.023294
Li	      6.21619      8.17958     10.54939         0.069359     -0.032392     -0.110437
Li	      8.22205      4.06884      8.36737        -0.067492      0.035791     -0.088664
Li	      8.25997      6.05396      6.37224         0.011713      0.080444      0.093779
Li	      6.21567      4.08091      6.35011        -0.045913     -0.020757     -0.004280
Li	      6.19593      8.14961      6.38467         0.117509     -0.046473      0.106769
Li	      4.17494      6.08593      6.44307         0.066138     -0.066215      0.039212
Li	      4.15960      4.07033      8.51421        -0.052588     -0.048909      0.030681
Fe	      4.12615      4.01407      4.34617         0.062842      0.068759     -0.078247
Fe	      8.20999      6.17512     10.66045        -0.277904      0.218228     -0.298541
Fe	      6.20474      6.05710      8.33698         0.441254      0.329398      0.410323
Co	      6.17047      2.04116      8.43464        -0.442702      0.142060     -0.311622
Cu	     10.27032      4.09637      6.38261         0.024861      0.138354     -0.043358
Cu	      2.10468      6.06558      8.45168         0.211412     -0.212140      0.028183
Cu	      4.14947      8.16020      8.45546        -0.417894      0.164926      0.135619
Cu	      6.20897      6.11606      4.33722         0.089049     -0.138076      0.139050
Cu	     10.28696      8.17513     10.62858        -0.122640      0.266509     -0.049064
O	      1.88691      6.11475      6.32200         0.098608      0.045154      0.073724
O	      4.10678      8.30827      6.43656        -0.046564     -0.198587     -0.021791
O	      4.23965      6.21524      8.41515        -0.834795     -0.159178     -0.034022
O	      6.15990      8.16963      8.48226         0.514929      0.076346      0.024265
O	      8.30344      8.10490     10.62303         0.104274     -0.075552      0.086118
O	      1.89656      1.89748      2.11478         0.186493      0.194929      0.327147
O	      4.02771      4.07222      2.40747         0.463022     -0.150528     -0.350290
O	      4.05870      2.07091      4.16725        -0.125143     -0.152342     -0.383495
O	      6.09979      4.15004      4.19814         0.173868     -0.031234     -0.107454
O	      6.14231      1.89748      6.60057         0.071079     -0.035406     -0.023066
O	      8.43944      4.09765      6.35258        -0.165029     -0.020677      0.035244
O	      2.05981      4.05194      4.31997        -0.182907      0.075959     -0.077007
O	      4.11421      6.16935      4.07334         0.106039     -0.335256      0.248467
O	      4.15734      4.09612      6.11064        -0.026888      0.077744      0.627399
O	      6.22801      6.10824      6.50888        -0.014454     -0.005310     -0.964285
O	      6.19610      4.05323      8.38850         0.041673     -0.053103      0.345101
O	      8.31558      6.13773      8.59611        -0.099958     -0.115029      0.033699
O	      6.25503      6.05795     10.34910         0.092417      0.005508      0.193335
