# total energy = -190.36093669 eV
 
CRYSTAL
PRIMVEC
0.002592 6.144763 6.238763 
6.176296 0.004355 6.236848 
4.123753 4.101530 -0.003283 
PRIMCOORD
36 1
Li	      8.25030      2.14214      6.25857         0.023593     -0.039913      0.044117
Li	      6.17992      4.11047      2.21326         0.030821      0.051978      0.019895
Li	      8.14211      4.15753      4.24780         0.034259      0.034578     -0.029138
Li	      8.27729      4.08832      8.23399         0.035387     -0.039931      0.062839
Li	      6.23295      6.10521      4.21935         0.014058      0.020809     -0.094445
Li	      4.17764      4.06106      4.22393        -0.099249     -0.039386      0.073780
Li	      8.18879      6.09861      6.17038         0.041378      0.058592     -0.043683
Li	      6.17541      4.13894      6.16238        -0.039270     -0.038556      0.048489
Li	      6.19077      8.14643      6.19257        -0.002878      0.049759     -0.050475
Fe	      0.17236      2.01035      2.03208        -0.067681      0.029836      0.192912
Fe	      2.08823      6.10398      4.17855         0.075384      0.024673     -0.198447
Fe	      4.07556      4.14424      8.24635         0.030160      0.105844      0.125937
Co	      4.09674      2.06930      2.10741        -0.080264     -0.011984     -0.409708
Ni	     10.27595      4.10186      6.22704         0.199171     -0.138220      0.250142
Ni	      6.12266      2.07392      4.20429        -0.092913     -0.107577     -0.018790
Ni	     10.29416      8.22086     10.41353         0.017887     -0.029506      0.047026
Ni	      4.15081      6.14718      6.20968        -0.122798      0.064748      0.100556
Ni	      6.19618      6.12493      8.24207        -0.084864     -0.004581      0.063835
O	      8.40011      4.12809      6.20624        -0.221700     -0.047614      0.050856
O	      2.07297      2.03902      2.13543         0.579701      0.011488      0.009496
O	      4.15684      4.06820      1.97874        -0.036530     -0.361021     -0.153786
O	      4.15462      2.07970      3.95139         0.089619     -0.004722      0.361082
O	      6.17579      3.91897      4.21184        -0.010440      0.334704      0.008620
O	      6.17966      1.98120      6.31784        -0.024809      0.045378     -0.299245
O	      2.00153      4.28542      4.14267         0.096483     -0.160178      0.009403
O	      4.11600      6.17451      4.10506         0.009101     -0.064372      0.088411
O	      4.06679      4.16280      6.36650         0.043218     -0.031142     -0.360252
O	      6.13048      6.13660      6.26133        -0.020405      0.011024     -0.034726
O	      6.10739      4.05571      8.36667         0.030367      0.111034     -0.127608
O	      8.27854      6.21328      8.44068        -0.014775     -0.131360     -0.078497
O	      2.02483      6.17210      6.04589         0.086167     -0.006187      0.131075
O	      4.11283      8.20235      6.33644         0.012057      0.014918      0.047443
O	      4.12957      6.20367      8.26929        -0.016939      0.276958     -0.007721
O	      6.12991      8.16395      8.39097        -0.397505     -0.001825      0.025889
O	      6.18823      6.21903     10.40279        -0.040527     -0.045770      0.032553
O	      8.21153      8.08565     10.30126        -0.075265      0.057524      0.112165
