# total energy = -139.08860408 eV
 
CRYSTAL
PRIMVEC
2.067307 2.067317 -0.000018 
6.291035 -4.224011 6.299576 
4.165464 -2.098220 -6.261430 
PRIMCOORD
24 1
Li	      5.24498     -1.10875     -5.39030         0.004927     -0.007356      0.000715
Li	      2.95547      1.18007     -1.19515         0.008284     -0.009724     -0.005537
Li	      5.37641     -1.24194      3.30846        -0.005204      0.006999      0.003828
Li	      2.97909     -0.91149     -3.16389         0.011529     -0.007571     -0.017261
Li	      5.18600     -3.11843      1.24080        -0.007247      0.007136      0.001603
Li	      7.45049     -3.31646     -0.98459        -0.007279      0.007587      0.015622
Mn	      5.20034     -1.06524     -1.01441         0.009765     -0.009602     -0.001006
Mn	      9.39458     -3.19283      1.07532        -0.004464      0.004950     -0.005139
Mn	      7.29915     -1.09726     -3.13723        -0.009611      0.009433      0.003600
Ni	      9.43952     -5.30460     -1.03132        -0.022049      0.021911      0.047738
Ni	      3.13300     -1.06531      1.05460         0.003410     -0.001144     -0.000184
Ni	      7.28199     -3.14732      3.18141         0.020587     -0.021875     -0.048846
O	      5.19197     -1.05665      0.86138         0.100213     -0.101631     -0.086479
O	      7.17318     -0.97098     -1.13240        -0.004611      0.005170     -0.015279
O	      9.37208     -3.17008      3.00836         0.096171     -0.096796     -0.041330
O	      7.17544     -3.04088     -3.08806        -0.024101      0.018947      0.091112
O	      9.28638     -5.15190      1.09591        -0.011604      0.007241      0.090292
O	      7.31679     -3.18166      5.24031         0.122508     -0.121158      0.100781
O	      5.32661     -1.19199     -3.01897         0.007468     -0.005891      0.010397
O	      3.14152      0.99324      1.24820        -0.100892      0.105420      0.088638
O	      9.41660     -3.21482     -0.85805        -0.093036      0.095236      0.042575
O	      3.25680     -1.18895     -1.06406         0.015993     -0.019662     -0.089894
O	      5.23947     -3.17207      3.17101        -0.123213      0.126702     -0.097941
O	      7.43516     -3.30090      1.05446         0.012458     -0.014322     -0.088002
