# total energy = -188.75440721 eV
 
CRYSTAL
PRIMVEC
0.008053 6.212058 6.178760 
6.237834 0.008449 6.178318 
4.146674 4.129255 0.017771 
PRIMCOORD
36 1
Li	      4.07931      4.09402      0.09119         0.040663     -0.046581      0.031596
Li	      2.15142      8.28139      6.22557         0.049185     -0.050402      0.043249
Li	      4.10932      2.11179      2.01205        -0.018759      0.059980     -0.087795
Li	      8.30164      4.15149      8.21858         0.021305     -0.069658      0.013823
Li	      2.12063      2.09983      4.09404         0.006830     -0.015515     -0.070737
Li	      4.12992      4.12779      4.15935         0.011627      0.021235     -0.050944
Li	      6.22449      4.18173      6.22421         0.004548     -0.015243      0.007904
Li	      2.11991      4.10805      6.15056        -0.028523      0.032182      0.031981
Li	      4.17576      4.12772      8.17180        -0.038965      0.048861      0.003806
Fe	      2.05830      6.23597      8.18190         0.016879     -0.210585     -0.002156
Fe	      6.23985      2.12200      4.16852         0.171898     -0.037537     -0.114541
Fe	      4.19576      8.21425      4.16757        -0.176145      0.072906      0.166984
Cu	      4.15453      2.10452      6.19319         0.011944      0.178247     -0.156798
Cu	      6.24838      6.21564      8.21325        -0.132703      0.063719      0.176036
Ni	      8.29861      4.15667      4.16106        -0.015309     -0.071390     -0.102927
Ni	      0.01764      2.05176      2.02859         0.213424     -0.079807      0.071143
Ni	      2.07704      6.18172      4.15705        -0.061462     -0.023883      0.167181
Ni	      4.18877      6.13953      6.17930        -0.061336      0.073647     -0.009128
O	      6.22938      6.19934      6.34494         0.167504     -0.049461     -0.394819
O	      4.15721      8.21004      6.00786         0.003796      0.096179      0.160699
O	      2.03363      1.91132      2.04516         0.123664      0.584421     -0.014365
O	      4.32849      4.15940      2.04477        -0.643260     -0.083000      0.010996
O	      4.21698      2.06471      4.25279        -0.163133      0.121286      0.155534
O	      6.28014      4.08702      3.96570         0.023803      0.169140      0.263915
O	      6.17322      2.10752      6.12756        -0.097512      0.048842      0.237380
O	      8.30168      4.28767      6.15374        -0.029629      0.098390      0.122503
O	      1.91862      4.18070      4.10787         0.180192     -0.092322     -0.036637
O	      4.09583      6.21213      4.14239         0.049275     -0.113306      0.012570
O	      4.17554      4.09667      6.16668         0.003799     -0.368623      0.050035
O	      6.22276      4.11317      8.44311        -0.027728      0.059918     -0.323345
O	      8.37588      6.21016      8.18989        -0.154512     -0.002388     -0.129456
O	      2.16497      6.16071      6.28554         0.020872     -0.011421     -0.369602
O	      4.02428      6.24086      8.21746         0.536971     -0.035207      0.020454
O	      6.19088      8.38552      8.36794        -0.008776     -0.368353     -0.102713
O	      6.24846      6.27055     10.15711        -0.042253      0.005204      0.229116
O	      8.33315      8.26951     10.36691         0.041827      0.010523     -0.010940
