# total energy = -188.29880505 eV
 
CRYSTAL
PRIMVEC
0.026472 6.086253 6.425212 
6.140235 0.011930 6.439466 
4.095804 4.070163 0.005150 
PRIMCOORD
36 1
Li	      4.05997      4.09022      0.09428        -0.026140     -0.029158      0.076184
Li	      6.11654      4.07301      2.27178        -0.060264      0.039747      0.075430
Li	      8.13429      4.10538      4.30554         0.093229     -0.020244      0.120145
Li	      8.18009      4.08421      8.50778         0.200195     -0.042970     -0.088661
Li	      4.14237      4.07330      4.28675        -0.036873     -0.044995     -0.092815
Li	      4.10905      2.01800      6.40484         0.055633     -0.091915     -0.091832
Li	      6.18764      4.06499      6.42716        -0.010114      0.025315     -0.195407
Li	      0.05478      4.02132      4.20690         0.042320      0.071104      0.206325
Li	      4.13921      6.07841      6.47694        -0.039439      0.049726      0.031840
Fe	      8.17133      2.09332      6.44159         0.489245     -0.272685      0.273667
Fe	      4.07416      2.09767      2.18002        -0.145985     -0.050313     -0.074057
Fe	      2.09087      4.04392      6.38161        -1.247518      0.073713     -0.017537
Cu	      6.09886      2.08797      4.32820        -0.142640     -0.012255      0.079935
Cu	      4.12151      6.06320      2.16121         0.056045     -0.373975     -0.036122
Cu	      2.08786      6.08683      4.27809         0.172166     -0.461818      0.145589
Cu	      6.18281      6.06995      8.52951        -0.094107      0.275304     -0.021916
Ni	      6.12351      6.01467      4.35015        -0.009355      0.139689     -0.050252
Ni	      4.12786      4.12002      8.54525         0.299324      0.168299     -0.491907
O	      8.19272      6.11624      8.68453         0.007955      0.292762     -0.199367
O	      4.21085      6.17195      8.59265        -0.018137     -0.664626     -0.070073
O	      6.23346      6.27355     10.55904        -0.112462      0.038888     -0.144773
O	      8.04412      8.09469     10.75710         0.062861      0.215144     -0.674102
O	      2.10397      1.98814      2.18503        -0.239464      0.031168      0.189262
O	      4.07946      3.95641      2.16152         0.034134      0.731376      0.025329
O	      4.19515      2.04085      4.19458         0.047994     -0.022324      0.129819
O	      6.13722      3.96550      4.31867        -0.013752     -0.051890      0.016576
O	      6.25023      2.03132      6.66665        -0.339547      0.015961      0.139947
O	      8.22256      3.88172      6.40963        -0.019621      0.575772      0.111131
O	      2.02407      4.06910      4.51360         0.032305      0.059492     -0.894690
O	      4.08730      6.09969      4.08763        -0.048979      0.012610      0.117759
O	      3.92720      4.08570      6.48678         1.731421     -0.000390      0.865376
O	      6.16673      6.11604      6.40684         0.030664     -0.152353      0.089760
O	      6.11640      4.13050      8.62434        -0.978091     -0.372259     -0.091115
O	      2.08218      6.20883      6.28659         0.016943     -0.145083     -0.151578
O	      4.12847      8.13279      6.52093        -0.415114      0.007260     -0.080593
O	      6.14862      8.14523      8.31068         0.625166     -0.014076      0.772720
