# total energy = -190.46685179 eV
 
CRYSTAL
PRIMVEC
0.021301 6.142512 6.530949 
6.109838 0.004544 6.546184 
4.057934 4.090719 0.019414 
PRIMCOORD
36 1
Li	      6.15360      6.12418     13.01258         0.018878      0.005164     -0.025051
Li	      8.14712      8.12054     12.99668         0.020597     -0.040225     -0.036144
Li	      6.12675      2.02839      4.46523         0.014908     -0.003480     -0.003005
Li	      6.07215      2.11337      8.69227        -0.010750     -0.034916      0.023733
Li	      4.07274      4.09626      4.39609         0.059250      0.006603     -0.065801
Li	      6.10004      4.09216     10.83629        -0.089765     -0.007356      0.045242
Li	      3.99796      6.18247      6.51384        -0.074579      0.037533     -0.009766
Li	      8.15867      8.14840      8.76168         0.002077     -0.004847      0.082104
Li	      6.20057      6.10405      8.80784         0.026100     -0.001217      0.070449
Fe	      4.09461      8.18684      8.64880        -0.016759     -0.231286      0.527461
Fe	      4.18193      6.06920     10.85392        -0.123463      0.146234     -0.163015
Fe	      5.99713      6.15982      4.38439         0.196694     -0.237498     -0.300082
Cu	      1.97946      0.03089      2.14040        -0.058599      0.076199      0.012694
Cu	      8.13093      4.12916      8.75280         0.320946     -0.172560      0.104046
Cu	      4.13041      2.06011      6.54363         0.191732     -0.055997     -0.004607
Cu	      6.12533      4.09605      6.59544        -0.008102      0.009390     -0.234229
Cu	      2.06434      4.11653      6.55409        -0.050522      0.083607      0.047536
Cu	      2.04674      6.12799      4.40025         0.014375      0.433346     -0.109189
O	      2.03897      6.11064      6.28763        -0.071500     -0.177040      0.383751
O	      4.06168      8.14482      6.82892         0.158550      0.051046     -0.614661
O	      6.11074      8.32233      8.57699         0.010068     -0.117740     -0.284550
O	      6.05444      6.13576     10.86960         0.668383      0.007018     -0.003212
O	      8.15319      8.28793     10.92127        -0.005447     -0.577716      0.012844
O	      1.98916      2.05975      2.26122        -0.000339      0.168991     -0.128857
O	      4.03250      3.97448      2.18961        -0.164923      0.324972      0.066117
O	      4.01295      1.97809      4.05364         0.163915      0.210491      0.117482
O	      6.16516      4.18744      4.52955        -0.242491     -0.302020      0.287717
O	      5.96089      2.11237      6.55462         0.122364     -0.012624      0.030945
O	      8.14962      4.29555      6.38040        -0.062228     -0.133149      0.160196
O	      2.02713      3.99436      4.56321         0.120248      0.510931      0.180316
O	      4.14105      6.13276      4.44915        -0.616330     -0.014712      0.079569
O	      4.10782      3.90790      6.61467        -0.086657      0.291680     -0.030161
O	      6.30953      6.16873      6.49467        -0.207686     -0.080605      0.158373
O	      6.24217      4.13330      8.53680        -0.177380      0.012826     -0.110877
O	      8.18082      6.03491      9.07358         0.024445     -0.047172     -0.207172
O	      3.98115      6.23722      8.77092        -0.066009     -0.123873     -0.060195
