# total energy = -211.76232526 eV
 
CRYSTAL
PRIMVEC
0.025020 6.199098 6.166916 
6.245027 0.036638 6.156370 
4.188448 4.151532 -0.001292 
PRIMCOORD
36 1
Li	      2.10107      2.05029      0.03623        -0.001890      0.012453      0.014387
Li	      6.30124     10.30585      8.17485        -0.027878     -0.010119      0.077088
Li	      4.28099      8.33284      8.21840        -0.064995     -0.050989      0.007465
Li	      6.31241      8.37986     10.16277        -0.003894      0.008657      0.041860
Li	      6.22612      2.11774      8.17416         0.075559      0.006687      0.017819
Li	      6.24563      6.19337      4.04917         0.018995      0.011589     -0.029176
Li	      4.25754      2.10697      6.22200         0.034127      0.015101     -0.041360
Li	      2.14062      6.21573      4.10409        -0.023649      0.015015     -0.012361
Li	      8.21040      8.15199      8.23332         0.031528      0.033998      0.023996
Mn	      6.30805      0.17271      6.16824         0.052999      0.020431      0.036944
Mn	      6.27100      4.14371      6.16155        -0.048720     -0.017404     -0.029081
Mn	      4.18520      8.19722      4.12032         0.000917     -0.049079      0.032995
Cr	      2.16140      4.12253      2.07985         0.017169     -0.257070      0.036546
Co	      4.14960      6.18664     10.07205        -0.017498     -0.029329     -0.086185
Co	      4.22103      3.98447      4.10026         0.028895     -0.097824     -0.027017
Co	      4.13087      6.22113      6.19783        -0.086921     -0.018761     -0.021137
Ni	      6.29116      8.28365      6.23109        -0.005547     -0.065809     -0.082910
Ni	      6.29975      6.29300      8.25892        -0.029800     -0.036213      0.034974
O	      2.10541      2.30274      2.03132         0.026507      0.221662     -0.009188
O	      4.11544      4.21944      2.03002        -0.042224     -0.012716      0.034842
O	      4.16552      2.19662      4.12610        -0.009760      0.147162     -0.019357
O	      6.28952      4.20197      4.16742         0.067541     -0.026919      0.030544
O	      6.29038      2.24078      6.13224         0.006475      0.041499      0.002856
O	      8.48653      4.23401      6.14393        -0.040351      0.032616      0.044480
O	      2.04585      4.11255      4.06985        -0.095398      0.037675     -0.132341
O	      4.16883      6.24750      4.26624        -0.070307      0.088611     -0.024677
O	      4.13406      4.29035      6.10866         0.106025      0.022353     -0.057108
O	      6.06437      6.14398      6.23038        -0.052568     -0.140382     -0.086769
O	      6.37179      4.17170      8.28193         0.031197     -0.026096      0.032592
O	      8.30285      6.07695      8.21221         0.159380     -0.003558     -0.030474
O	      2.06716      6.18732      6.17057         0.031058      0.081402      0.006368
O	      4.23490      8.15729      6.03907        -0.091338     -0.075480     -0.075428
O	      4.16812      6.26887      8.22869        -0.085597     -0.011962      0.130800
O	      6.27181      8.25792      8.21310         0.016377      0.116813      0.141605
O	      6.20958      6.07651     10.35947         0.018648     -0.040051      0.037503
O	      8.54095      8.36288     10.22952         0.074938      0.056036     -0.021095
