# total energy = -214.55885530 eV
 
CRYSTAL
PRIMVEC
0.003168 6.341286 6.186009 
6.090370 -0.044615 6.232276 
4.027325 4.225847 0.003541 
PRIMCOORD
36 1
Li	      4.06468      2.01700      2.19040        -0.024953     -0.057510     -0.011909
Li	      4.03606      0.01245      4.11836        -0.048734     -0.048464     -0.027568
Li	      6.05743      6.40566      4.34074        -0.023356      0.065373     -0.014580
Li	      3.95698      2.24304      6.17866        -0.045787      0.010883     -0.008290
Li	      5.97504      4.40848      6.11023         0.018972      0.062123     -0.002192
Li	      2.05452      6.28833      4.17439         0.040349      0.013043      0.011184
Li	      6.11087      8.29768      6.17009        -0.016949     -0.010978      0.016778
Li	      4.12172      6.19214      6.22106        -0.021095     -0.006973     -0.006857
Li	      4.06676      4.33752      8.06163        -0.054182      0.067592      0.038510
Mn	      2.05199      8.45266      6.17532         0.031559      0.008399      0.074158
Mn	      6.02153      2.05168      4.15306         0.047075     -0.036955     -0.076394
Mn	     10.04707      6.31713      8.32729         0.091255     -0.030719      0.031966
Cr	      6.06076      6.32204      8.21507        -0.078269     -0.053103     -0.027619
Co	      4.03162     10.54599      6.17661         0.058627     -0.042029      0.107467
Co	      2.14370      6.25243      8.26948        -0.388637      0.049470     -0.157130
Co	      2.01799      4.20386      2.05477        -0.048906     -0.024912     -0.017617
Co	      6.10582      4.22638     10.33155        -0.039725      0.066472      0.005531
Cu	      3.97741      4.17691      4.26284         0.006346      0.032756     -0.270709
O	      4.01989      4.24192      6.13765         0.036837     -0.025195      0.067666
O	      1.92149      2.20980      1.95582        -0.058261      0.139985     -0.041336
O	      3.97208      4.16494      1.95866         0.194105      0.037972      0.001269
O	      4.19421      1.98300      4.19260        -0.025339     -0.046590      0.040859
O	      5.99068      3.96634      4.11340         0.200825     -0.037297     -0.246389
O	      6.16839      1.92185      6.22023         0.035478     -0.044372      0.028449
O	      8.18161      4.01083      6.34080         0.032007     -0.061846      0.033808
O	      1.95792      4.23173      3.97307         0.055786     -0.002811     -0.035871
O	      4.02964      6.58911      4.00951         0.024307      0.010461     -0.005743
O	      6.07291      6.33007      6.29873         0.012386      0.021208      0.014906
O	      6.15983      4.28395      8.39034         0.100147      0.007956      0.013072
O	      8.13998      6.09612      8.25769        -0.033588     -0.018657     -0.034977
O	      1.93547      6.50556      6.24965         0.146269     -0.008884      0.346054
O	      3.97687      8.61157      6.05084        -0.030361      0.055669     -0.017248
O	      4.09942      6.32706      8.27187        -0.154252      0.050973      0.115625
O	      6.13422      8.32833      8.45339        -0.029800     -0.145357      0.027954
O	      6.11602      6.33527     10.43470         0.026781      0.016257     -0.042134
O	      8.09892      8.44816     10.51830        -0.036918     -0.013942      0.069309
