# total energy = -215.42336926 eV
 
CRYSTAL
PRIMVEC
-0.000315 6.342648 6.211483 
6.073296 -0.004495 6.214784 
4.032990 4.214112 0.013374 
PRIMCOORD
36 1
Li	      6.05156      0.12564      6.11758         0.017164      0.007094      0.002802
Li	      4.04444      8.39739      8.32953        -0.005785      0.078124     -0.012586
Li	      8.09328      4.21151      4.21568         0.026297      0.041210      0.021952
Li	      4.04803      4.14835      4.18246        -0.005541      0.025239      0.004888
Li	      4.10347      2.06596      6.14899        -0.008266      0.021971     -0.024918
Li	      6.09209      4.15796      6.19913        -0.002149     -0.012045      0.074970
Li	     10.05432      8.51437     10.40057         0.024742     -0.026395     -0.041177
Li	      7.97734      6.44185     10.38479         0.062183      0.023367      0.056771
Li	      8.07200      8.43782      8.28990         0.060241     -0.015691      0.030274
Mn	      6.02440     10.50280      8.30666        -0.222929      0.103194      0.035002
Mn	      2.07127      4.25607      2.07852        -0.082253     -0.041504     -0.097811
Mn	      4.03065      6.27222      6.16379        -0.103183     -0.020468     -0.158622
Cr	      6.04709      6.32197      8.36698        -0.190906     -0.084695     -0.123402
Co	      8.11683      2.25627      6.15025        -0.067665      0.084530     -0.072229
Co	      6.03951      2.18291      8.31031        -0.123040      0.046145      0.047180
Co	      2.10732      2.09246      4.14902         0.003883     -0.064311     -0.057340
Co	      6.03880      8.39844      6.21291         0.109940      0.106319     -0.158345
Ni	      6.02856      2.06833      4.19921        -0.168335      0.126224     -0.176973
O	      2.05376      2.29023      1.95230        -0.140370     -0.013478     -0.069277
O	      4.04482      4.32421      2.06859         0.078586     -0.390232     -0.001039
O	      3.95838      2.07068      4.15855         0.100309      0.018952     -0.017038
O	      6.07689      4.31289      3.99370         0.047496     -0.096422     -0.100034
O	      6.22296      2.15837      6.23095         0.080306      0.043020      0.127820
O	      8.13849      4.26258      6.40369        -0.036780     -0.016586      0.159149
O	      2.04186      4.02062      4.17503        -0.034518      0.037542     -0.040062
O	      4.19567      6.28941      4.22606        -0.120161     -0.025489      0.057903
O	      3.93963      4.34146      6.20426        -0.023052      0.045072      0.070232
O	      5.95888      6.44051      6.30062        -0.043012      0.037696     -0.032914
O	      6.20257      4.29393      8.31732         0.093637      0.238998      0.032640
O	      8.03664      6.18424      8.34272         0.466240      0.035682      0.032601
O	      2.07344      6.13845      6.26174         0.128501     -0.141746      0.078304
O	      4.01013      8.23056      6.19943        -0.049042     -0.133278     -0.000841
O	      3.97932      6.28233      8.12772         0.045346      0.014900     -0.026265
O	      6.03811      8.34539      8.17361        -0.048419     -0.026679      0.180164
O	      6.01915      6.39658     10.28940         0.057305     -0.034659      0.084463
O	      8.03921      8.46145     10.50635         0.073230      0.008400      0.113759
