# total energy = -139.39590572 eV
 
CRYSTAL
PRIMVEC
2.080668 4.055213 2.080776 
-6.303895 -0.000108 6.304323 
2.122566 -4.096174 2.122764 
PRIMCOORD
24 1
Li	     -3.26354      1.00947      5.35321        -0.011681      0.000221      0.011922
Li	     -3.33409      3.03709      7.50426         0.009629      0.000228     -0.008579
Li	     -0.95205      1.00919      3.04191         0.012900      0.000284     -0.013017
Li	     -1.06707      3.03749      5.23757         0.000864     -0.001042      0.000815
Li	      1.04323      1.00940      1.04559         0.000135     -0.000810     -0.000413
Li	      1.19941      3.03700      2.97056        -0.009062      0.000880      0.010313
Mn	      1.06829      0.98947      5.22513         0.032779     -0.002173     -0.032129
Mn	     -1.07988      0.98924      7.37319        -0.018583      0.002558      0.025417
Mn	     -1.04577     -1.03801      5.25859        -0.004440     -0.006219     -0.001534
Ni	      3.14635      0.98939      3.14674        -0.002380     -0.002289      0.001894
Ni	      1.09898     -1.03834      3.11341        -0.061172     -0.000501      0.062095
Ni	     -3.19142     -1.03837      7.40358         0.065794      0.000424     -0.059585
O	      0.86132     -3.10208      3.18225        -0.073044     -0.102868      0.096276
O	      0.89047     -0.94508      5.26155        -0.048948      0.017113      0.088762
O	     -3.12242     -3.10197      7.16590         0.095176     -0.105405     -0.071955
O	      3.11668     -1.07445      3.11738         0.123330     -0.110437      0.120650
O	     -1.12635     -2.98151      5.17830        -0.011903      0.026205     -0.014286
O	     -1.04316     -0.94512      7.19513         0.088332      0.015914     -0.049995
O	     -2.95262      1.02525      7.33509         0.062198      0.104722     -0.097925
O	      1.09494     -1.00241      1.09539        -0.123450      0.112707     -0.123137
O	     -0.96561      0.90512      5.33868         0.013062     -0.024126      0.015671
O	     -2.98228     -1.13139      5.25550         0.047688     -0.015656     -0.086520
O	      1.03055      1.02519      3.35148        -0.098493      0.105751      0.071023
O	     -1.04874     -1.13132      3.32172        -0.088733     -0.015480      0.054240
