# total energy = -218.24451085 eV
 
CRYSTAL
PRIMVEC
-0.000587 6.235432 6.341950 
6.166176 0.037236 6.304142 
4.121670 4.143201 0.013696 
PRIMCOORD
36 1
Li	      8.17912      2.24416      6.41710         0.058916     -0.003075      0.056290
Li	      4.06187      2.12324      2.18472         0.012385     -0.053274      0.040887
Li	      8.21403      4.21442      4.40973         0.051652      0.023076      0.045553
Li	      6.14972      2.11257      8.35139         0.019659      0.012100      0.071422
Li	      8.20145      4.26910      8.35942        -0.012434      0.032044      0.005578
Li	      4.13008      4.11466      4.11900        -0.019580      0.024002     -0.022962
Li	      8.27448      6.14923      6.35290        -0.038820     -0.030225     -0.003673
Li	      6.36042      4.12893      6.37845         0.038974      0.091703      0.011908
Li	      6.25189      6.15566      8.43160         0.014440     -0.001365      0.001233
Mn	      6.08976      2.16930      4.26167        -0.039189     -0.112849     -0.048446
Mn	      6.16829      8.27174      6.30922        -0.021322      0.072119     -0.074400
Mn	      4.09886      6.24584      6.32262        -0.093862     -0.123905      0.118783
Cr	      8.25706      8.29789      8.47334         0.067308      0.033684     -0.058217
Co	     10.23562      4.23607      6.33831         0.432986      0.170820     -0.076214
Co	      6.13307      4.19771      2.15917        -0.041744      0.170526     -0.090137
Co	      2.15359      2.03840      4.16880         0.056585      0.024483      0.008607
Co	      6.14897      4.20767     10.47829         0.029758     -0.062306     -0.105583
Co	      8.20852      6.24837     10.48475        -0.093296     -0.036426      0.006780
O	      2.06202      1.91347      2.21541        -0.005416     -0.139911      0.036500
O	      4.26468      4.13163      1.98613        -0.044220      0.072797     -0.525768
O	      4.19277      2.10074      4.20283         0.110726      0.032284      0.017086
O	      6.17445      4.08469      4.28318         0.002752     -0.067880     -0.073702
O	      6.20238      2.11411      6.14788        -0.153883     -0.958972      0.204244
O	      8.39117      4.15110      6.38514         0.154074      0.150800      0.005694
O	      1.91590      4.24857      4.13699        -0.041409      0.059323     -0.008093
O	      4.02132      6.34708      4.33079        -0.019657     -0.098434      0.007358
O	      3.98205      4.27624      6.41997        -0.044093      0.015229     -0.020707
O	      6.19347      6.34515      6.23286         0.246761      0.049595     -0.077966
O	      6.09025      4.19993      8.55935        -0.032285      0.008795      0.166456
O	      8.22439      6.33840      8.58097         0.021697      0.045234      0.030173
O	      1.93333      6.11959      6.17716        -0.317153     -0.064707     -0.064517
O	      4.19802      8.22056      6.19359        -0.084954      0.577667     -0.044291
O	      3.97421      6.21045      8.27518         0.009374     -0.018206     -0.056090
O	      6.20654      8.44137      8.58074        -0.051782     -0.023178      0.103561
O	      6.25325      6.22271     10.58818        -0.139756      0.204467      0.410686
O	      8.25649      8.21513     10.48645        -0.033190     -0.076037      0.001969
