# total energy = -210.83776915 eV
 
CRYSTAL
PRIMVEC
0.028420 6.340488 6.278857 
6.179793 0.023059 6.283734 
4.126082 4.236925 0.008815 
PRIMCOORD
36 1
Li	      6.15252      4.31256      2.31287         0.022706      0.037206      0.071175
Li	      4.00795      2.16160      2.29609        -0.068867     -0.005870      0.068971
Li	      8.12436      4.39343      4.21972         0.013311      0.077591     -0.103713
Li	      2.14610      4.15793      1.98444        -0.054599     -0.052133      0.090438
Li	      6.33715      6.17080      4.25113        -0.033685     -0.011792     -0.013675
Li	      4.26012      4.09517      4.12854        -0.095032      0.018261      0.064787
Li	      4.06017      2.11866      6.10276         0.028604      0.105622      0.030279
Li	      6.31356      4.24405      6.13506        -0.130388      0.034307      0.067170
Li	      4.18426      6.34213      6.35005         0.089787     -0.100986      0.002803
Mn	      0.04548      2.05781      2.06369        -0.000019      0.213706      0.100582
Mn	      6.19474      8.46267      6.33802        -0.050420     -0.082966     -0.291646
Mn	      4.13013      4.30763      8.32638         0.050584     -0.083605      0.023136
Cr	      6.20483      4.24526     10.45217         0.056241     -0.108372     -0.159680
Fe	      2.09007      6.31086      4.19468         0.170084     -0.073896     -0.254159
Co	      2.06581      2.13135      0.05449         0.191966      0.857787     -0.230764
Cu	      4.06218      4.20964      0.08357         0.089691      0.186255     -0.014803
Cu	      6.16049      6.39181      8.31045         0.002229     -0.006374     -0.100519
Ni	      6.05614      2.28769      4.23452         0.374509     -0.269298     -0.021323
O	      6.17795      4.21659      4.26149         0.158238      0.247450      0.062009
O	      8.34359      4.03316      6.29723         0.071621      0.101837     -0.285634
O	      1.95930      2.11183      1.94400         0.018670     -0.235923      1.157321
O	      4.07981      4.45482      2.16451         0.002295     -0.174329     -0.147158
O	      4.16439      2.11176      4.18211        -0.388592     -0.087328     -0.021881
O	      6.33034      2.12140      6.39153        -1.110078     -0.173980     -0.090115
O	      2.00891      4.29984      4.37417         0.066771     -0.037999     -0.013165
O	      4.10056      6.45857      4.04031         0.017920     -0.034227      0.035433
O	      3.97716      4.27354      6.43130         0.156679      0.105948      0.077343
O	      6.18487      6.58713      6.37656        -0.026522     -0.071925     -0.042776
O	      6.08760      4.09808      8.41739         0.102883     -0.067365     -0.057147
O	      8.34793      6.50735      8.40634        -0.050504     -0.020592     -0.041083
O	      1.98095      6.34588      6.18166         0.137785     -0.285669      0.180687
O	      4.15672      8.45195      6.19419         0.617029     -0.150466      0.041641
O	      4.21627      6.14216      8.37373        -0.113303      0.023461      0.037768
O	      6.33622      8.59166      8.27873        -0.131970      0.095316      0.152391
O	      6.30424      6.26420     10.26663        -0.254490     -0.033132      0.237383
O	      8.28261      8.38839     10.46516         0.068868      0.063481     -0.612075
