# total energy = -210.31285732 eV
 
CRYSTAL
PRIMVEC
-0.006033 6.267136 6.271724 
6.104459 -0.001777 6.267589 
4.083174 4.188998 -0.015009 
PRIMCOORD
36 1
Li	      6.11279      0.05741      6.29776         0.055377      0.058377     -0.035783
Li	      2.01983      2.08526      0.03388         0.036112     -0.038909     -0.061172
Li	      6.03233      4.23115      2.06417        -0.002516      0.013570     -0.041965
Li	      4.10267      8.39201      8.27817         0.035231     -0.000671     -0.012018
Li	      6.12806      8.34160     10.48484         0.063347     -0.060936      0.055102
Li	      0.07805      2.03607      1.95672        -0.030886     -0.027152     -0.027684
Li	      6.13984      4.09196      6.24615        -0.003760     -0.067981     -0.002635
Li	     10.14277      8.43690     10.52140        -0.026358      0.063816      0.069979
Li	      6.03668      8.35026      6.30603         0.002309      0.059702     -0.021938
Mn	      4.13590      4.13777      4.15480        -0.070116      0.071688     -0.064981
Mn	      8.06676      6.31517     10.51669        -0.119474      0.114561      0.031053
Mn	      4.07652      6.34150      6.26483        -0.370755     -0.108170     -0.035645
Cr	      8.12971      4.15544      8.32699        -0.080952      0.036446      0.157984
Fe	      8.13868      8.34944      8.32327         0.158041      0.051684      0.025982
Co	      8.14976      4.16439      4.26074         0.121355     -0.173565      0.201463
Cu	      2.03497      2.07435      4.12466        -0.113352      0.051365     -0.081343
Cu	      4.17631      2.04109      6.24124        -0.066573      0.028510     -0.001866
Cu	      6.10472      6.28881      8.33487        -0.086054      0.070167      0.001260
O	      6.05972      2.07773      6.30792        -0.078929      0.067160      0.019397
O	      4.05891      8.15637      6.26414         0.028653      0.048600      0.018432
O	      6.22367      8.22596      8.28818        -0.224003     -0.109129      0.001525
O	      1.99015      2.21668      2.22428         0.036759     -0.048278     -0.116649
O	      4.01249      4.19721      2.24982         0.129525     -0.011148      0.035823
O	      4.04511      2.21300      4.13856        -0.119451     -0.107742     -0.002730
O	      6.04242      4.17072      4.11205         0.115192      0.047468      0.050906
O	      8.16982      4.23467      6.30434         0.008224      0.047947     -0.451330
O	      2.13456      4.32755      4.09690        -0.041607     -0.120470      0.016555
O	      3.97569      6.17271      4.31452         0.347630     -0.114217      0.021923
O	      4.08007      4.23223      6.18744         0.046371      0.036129     -0.040131
O	      6.02882      6.27866      6.05483         0.448153     -0.056844      0.100655
O	      6.10985      4.31877      8.33541        -0.003477      0.042383     -0.016992
O	      8.14061      6.27360      8.52386         0.100777     -0.059848      0.108288
O	      2.13890      6.27451      6.16153        -0.130042     -0.022288      0.071151
O	      4.08325      6.19146      8.24755         0.022357     -0.003582      0.051828
O	      6.15780      6.25615     10.53360        -0.169446     -0.023802     -0.064882
O	      8.16266      8.29548     10.34370        -0.017662      0.245160      0.040438
