# total energy = -211.56150813 eV
 
CRYSTAL
PRIMVEC
-0.033797 6.322853 6.274732 
6.057549 -0.009961 6.252071 
4.039688 4.201806 -0.008421 
PRIMCOORD
36 1
Li	      0.06103      6.14851      6.13670         0.017925      0.016750      0.015243
Li	      6.07540      8.26957     10.35130         0.005095     -0.002879      0.005104
Li	      4.00429      6.34374      2.19782         0.014461      0.027567     -0.035008
Li	      3.99334      4.30204      4.16453        -0.015429     -0.037941      0.018916
Li	      4.01516      8.45247      4.24063         0.004586     -0.013739      0.025612
Li	      5.92374      8.46831      6.33737         0.046173      0.001324      0.049097
Li	      3.99026      6.42550      6.25096        -0.029201      0.042695      0.025966
Li	      8.03343      8.49614      8.41772         0.004079     -0.011594      0.008424
Li	      6.01496      6.35125      8.43616        -0.010748      0.014515     -0.029585
Mn	      2.04622      4.22007      2.09402        -0.011924      0.024301      0.043859
Mn	      4.05583      2.12092      6.23519         0.168069      0.038966      0.061899
Mn	      6.00890      4.21794      6.23661        -0.015611     -0.193546      0.046776
Cr	      2.03511      8.35591      6.22117        -0.023828     -0.109434     -0.126616
Fe	      5.98663     10.39564      8.36949         0.052067      0.064212     -0.103566
Co	      5.92506      6.35911      4.17604        -0.170215      0.017556      0.035172
Ni	      4.03636      8.39403      8.35318         0.064447     -0.039805      0.017192
Ni	      4.09310      6.27039     10.39883         0.183131     -0.093405      0.026146
Ni	      2.00590      6.32547      4.18538        -0.028494     -0.085016     -0.067233
O	      2.00374      2.22051      2.01730        -0.108926      0.046518      0.121045
O	      3.99826      4.15780      2.09149        -0.164992      0.143510      0.001697
O	      3.96620      2.04906      4.31341        -0.095064      0.097664     -0.013439
O	      6.06585      4.27993      4.23726        -0.073573      0.060524      0.091264
O	      6.01256      2.29216      6.19370        -0.092679      0.041554      0.025278
O	      8.01655      4.22418      6.27813        -0.053912      0.074441      0.123292
O	      1.98852      4.26269      3.97187        -0.037601     -0.359145     -0.158863
O	      3.95471      6.31339      4.20967         0.808173      0.038335     -0.059393
O	      4.12135      4.02935      6.29205         0.029134     -0.094652     -0.023709
O	      6.15429      6.16918      6.26755        -0.005490     -0.003245     -0.142068
O	      6.16671      4.19926      8.13880         0.029495     -0.008716     -0.053772
O	      8.11910      6.12251      8.19541        -0.039199     -0.002243     -0.032075
O	      1.96980      6.40995      6.33383         0.004976      0.134992      0.196058
O	      3.94687      8.41286      6.32367        -0.063392      0.008906     -0.113034
O	      3.90140      6.36285      8.43176         0.090726     -0.094706     -0.160289
O	      6.03066      8.51003      8.34514         0.101394     -0.132011      0.053412
O	      6.12384      6.30006     10.41952        -0.563748     -0.055886      0.017857
O	      8.08226      8.33293     10.52260        -0.019905      0.443633      0.109341
