# total energy = -214.30652427 eV
 
CRYSTAL
PRIMVEC
-0.001292 6.256804 6.252376 
6.306260 0.020448 6.230550 
4.208407 4.160822 0.009526 
PRIMCOORD
36 1
Li	      6.26801      0.15724      6.26195        -0.222472      0.002182      0.031587
Li	      8.24273      2.12614      6.26034        -0.083203      0.160495      0.074447
Li	      6.28659      4.16908      2.12641         0.049839      0.007544     -0.007100
Li	      4.23696      2.10116      2.12694         0.005502      0.016595     -0.039975
Li	      8.41534      4.20581      4.20855         0.015076     -0.028301      0.058672
Li	      6.26347      2.09267      4.24444        -0.032083      0.008730      0.034669
Li	      4.33640      2.02792      6.17331         0.036169     -0.182024      0.011708
Li	      6.40454      4.05508      6.18968         0.242212     -0.006102      0.050667
Li	      6.24677      6.28002      8.39282        -0.051337     -0.063749      0.044737
Mn	      2.15961      2.04436      4.13695         0.177300     -0.099637     -0.285606
Mn	      6.30248      8.34279      6.31648        -0.016248     -0.040558     -0.097374
Mn	      8.39152      8.35381      8.35051         0.022005     -0.033544     -0.101072
Cr	      4.23210      6.26510      6.26355         0.007818      0.014148      0.072271
Fe	      8.23853      6.30293     10.41122         0.062718     -0.059698     -0.170764
Co	      6.30869      2.11674      8.27621         0.001264     -0.138436     -0.283093
Co	      8.46450      4.18193      8.13578         0.227806      0.035787      1.213876
Cu	     10.44796      8.39737     10.45425        -0.123407      0.099485      0.079475
Ni	      4.27334      4.11454      4.10276         0.056448     -0.019227      0.033011
O	      8.40942      4.15961      6.38251         0.099297     -0.044470     -0.587059
O	      1.96645      2.15001      2.19008        -0.152645      0.003069      0.109356
O	      4.16345      4.32665      2.10226        -0.111650      0.157968     -0.259678
O	      4.04707      2.09021      4.11613        -0.135404     -0.074751     -0.009600
O	      6.26443      4.34196      4.17118         0.110845      0.099881     -0.006145
O	      6.29567      2.11887      6.38400        -0.016896      0.023210      0.028605
O	      2.22954      4.13855      4.08031        -0.007444     -0.011794     -0.193208
O	      4.30433      6.30434      4.16933         0.059501     -0.051797      0.062417
O	      4.06212      4.22709      6.32675         0.003596      0.041393      0.016841
O	      6.24743      6.28929      6.08993        -0.033362      0.355849      0.003764
O	      6.20537      4.07981      8.37260        -0.129949     -0.074198     -0.075053
O	      8.55068      6.31929      8.39294        -0.070206      0.116306      0.024450
O	      2.22909      6.26095      6.12298         0.052474     -0.330193      0.146932
O	      4.39286      8.25954      6.26528         0.161163     -0.062290      0.045478
O	      4.24498      6.09618      8.22535        -0.035335      0.032794     -0.031046
O	      6.46252      8.31606      8.31736        -0.020392     -0.023806     -0.030822
O	      6.36625      6.16275     10.40657        -0.145060      0.105129      0.022361
O	      8.30637      8.28083     10.25572        -0.003941      0.064013      0.012271
