# total energy = -212.80353821 eV
 
CRYSTAL
PRIMVEC
0.000087 6.281977 6.269357 
6.193633 -0.007206 6.277075 
4.118137 4.182157 0.005913 
PRIMCOORD
36 1
Li	      4.12623     10.43598      6.26635         0.139658      0.018158     -0.039189
Li	      6.15632      4.16727      2.21449        -0.047602      0.024378     -0.024693
Li	      6.18769      2.15012      4.19916         0.111471     -0.096578     -0.033383
Li	      6.23863      6.17014      4.31404        -0.091034      0.066764      0.003659
Li	      4.10582      4.18794      4.29780        -0.119089      0.182694     -0.012015
Li	      6.19590      4.18347      6.18366        -0.039681      0.026447     -0.013156
Li	      4.11575      8.36619      4.28398         0.047662     -0.040074     -0.055713
Li	      2.07186      4.16489      6.16225         0.035820      0.009587     -0.108606
Li	      4.07597      6.32156      6.14036        -0.071261     -0.005676     -0.166580
Mn	      4.12836      8.39149      8.34576         0.016027      0.115170      0.170035
Mn	      4.10753      4.20600      8.27360        -0.002361     -0.181204      0.111946
Mn	      6.18176      6.26394      8.30223         0.264258      0.046420      0.342754
Cr	      2.03643      4.18480      2.14213         0.038835      0.068688      0.826593
Fe	      4.21397      6.16889      2.13247        -0.213824     -0.049260      0.836231
Co	      8.23963      4.18745      4.20921        -0.004757      0.139938     -0.195044
Co	      8.22403      6.28460     10.49699         0.101354     -0.179752     -0.187657
Cu	      8.24797      8.38264     12.50511        -0.079860     -0.389286      0.105456
Cu	      4.17222      2.10968      6.17184        -0.025144      0.112290     -0.030408
O	      4.14329      4.10263      6.37574         0.071102     -0.030595     -0.097010
O	      2.02236      6.40976      6.06029         0.070491      0.436919      0.237068
O	      2.00219      2.19689      2.27922         0.216153     -0.064156     -0.124698
O	      4.06286      4.17192      2.15895        -0.001878     -0.126355     -0.039973
O	      4.17449      2.00902      4.01812         0.010486     -0.543843      0.154911
O	      6.41434      4.15936      4.18052         0.301309     -0.030371     -0.037832
O	      6.16661      2.07846      6.50560         0.168128      0.089359     -0.828538
O	      8.28363      4.16121      6.35848         0.020934     -0.223518     -0.882232
O	      2.01057      4.37576      4.14182         0.049997     -0.021645     -0.164369
O	      3.96271      6.29185      4.05676        -0.279285      0.078964      0.282841
O	      6.31298      6.25830      6.40825        -0.019834     -0.075910      0.031785
O	      6.19252      4.28625      8.36005        -0.042197      0.053468     -0.123807
O	      8.17521      6.20693      8.53586        -0.121791     -0.061301     -0.070972
O	      4.02022      8.37296      6.44262        -0.261278      0.045405     -0.276962
O	      4.25164      6.30960      8.33554        -0.043217     -0.023036      0.533186
O	      6.22776      8.20517      8.28615        -0.047508      0.052546      0.006183
O	      6.12401      6.26986     10.28653        -0.165378      0.062013     -0.106238
O	      8.22356      8.31216     10.24208         0.013296      0.513350     -0.023575
