# total energy = -215.25126061 eV
 
CRYSTAL
PRIMVEC
0.018176 6.234160 6.201689 
6.204598 0.013450 6.206894 
4.158498 4.181602 -0.013580 
PRIMCOORD
36 1
Li	      4.18623      8.31543      8.20161        -0.015809      0.020732      0.003296
Li	      8.18097      4.28382      8.25788        -0.014124     -0.000710     -0.010460
Li	      8.19928      6.24950      6.24648        -0.002468     -0.017127      0.034823
Li	      6.24710      4.24618      6.29408         0.011418      0.014010      0.028738
Li	      6.17917      4.29548     10.33963         0.050848      0.006636     -0.025196
Li	      2.06402      6.14294      4.11223         0.019227     -0.037949      0.034854
Li	      6.21602      8.29045      6.21900        -0.034726      0.000956     -0.016428
Li	      4.19875      6.28949      6.18709         0.001197     -0.022779     -0.008398
Li	      6.25928      6.22806      8.18862         0.015816     -0.022985     -0.028958
Mn	      2.11164      6.21290      8.21376        -0.157109      0.170888     -0.046254
Mn	      4.13212      4.13450      4.24265        -0.039333      0.026818      0.030044
Mn	      4.18209      4.14762      8.20347         0.167720     -0.093323     -0.009875
Cr	      6.19849      2.08660      8.25189         0.065993      0.008329      0.032590
Fe	      6.22813      6.32866      4.31158        -0.055009     -0.064639     -0.253442
Co	      2.20062      8.36030      6.15362         0.108845      0.001195      0.043340
Co	      4.14061      0.02141      4.13990         0.039956     -0.003687      0.155725
Ni	      6.22589      6.22255     12.36011        -0.101064     -0.115591     -0.016111
Ni	      6.22801      8.28451     10.36607        -0.003565      0.083017      0.018417
O	      2.02699      1.94494      2.08273         0.008746     -0.086354      0.010316
O	      4.31099      4.21489      2.02572         0.087342     -0.043634      0.150706
O	      4.12085      2.09183      4.11865        -0.041737     -0.015926     -0.064433
O	      6.21546      4.18597      4.00909         0.016313      0.090134     -0.069639
O	      6.38477      2.05270      6.23755        -0.034103      0.235243      0.048435
O	      8.30437      4.16800      6.04275        -0.085819     -0.099269     -0.088373
O	      2.21954      4.11214      4.09360        -0.012984      0.080276     -0.048310
O	      4.19762      6.08151      4.05799        -0.038738      0.026339     -0.037061
O	      4.17870      4.16001      6.30006        -0.010847     -0.031409      0.016878
O	      6.19172      6.26376      6.14386         0.032921     -0.008783      0.311311
O	      6.10385      4.08001      8.30056        -0.052331      0.045881      0.015990
O	      8.36466      6.41303      8.27171        -0.051621     -0.006804      0.044346
O	      2.08761      6.24699      6.33344         0.235758      0.080006     -0.027225
O	      4.03197      8.34073      6.18027        -0.057594     -0.204374      0.017350
O	      4.05655      6.15383      8.37103        -0.016863      0.015925      0.025249
O	      6.36349      8.47445      8.26849        -0.059799     -0.022029     -0.042957
O	      6.06239      6.29897     10.32058        -0.074857     -0.097951     -0.159601
O	      8.26616      8.51102     10.29297         0.098401      0.088938     -0.069687
