# total energy = -220.01629614 eV
 
CRYSTAL
PRIMVEC
-0.003253 6.232884 6.264016 
6.171061 -0.020868 6.281780 
4.116135 4.169156 -0.016422 
PRIMCOORD
36 1
Li	      6.26131     10.26883      8.39176        -0.013251     -0.064718     -0.005726
Li	      6.19369      8.35127     10.39589        -0.017439     -0.012776     -0.001134
Li	      6.20748      6.22337      4.30043         0.009144      0.009649      0.024290
Li	      4.01329      2.14553      6.19705         0.020495      0.009854     -0.018253
Li	      6.14012      4.20098      6.20420         0.009271     -0.010439      0.017992
Li	     10.26253      8.31606     10.45583         0.006312      0.008759      0.001733
Li	      8.23658      6.23207     10.44963         0.004721     -0.000863      0.007873
Li	      6.20872      8.22415      6.25241        -0.025127      0.004917     -0.014056
Li	      8.10609      8.37285      8.33930        -0.040924      0.024780     -0.070425
Mn	      6.22628      6.21003     12.44501         0.073263      0.015617      0.010765
Mn	      4.11448      6.28400      2.13209        -0.009833      0.001850     -0.020313
Mn	      2.06085      4.17032      2.14605         0.012783      0.032732      0.103355
Cr	      6.16865      6.22880      8.33046         0.008007      0.034630     -0.002901
Fe	      4.18195      8.25705      8.42247        -0.095214      0.000265     -0.088605
Co	      8.22776      2.08908      6.27318        -0.007871     -0.060284     -0.055891
Co	      8.13980      4.13270      4.18403        -0.053982     -0.017440      0.000744
Co	      4.19319      4.16073      4.25883         0.005878      0.013948     -0.011645
Co	      4.14594      6.12134      6.13529         0.022308     -0.072430     -0.048679
O	      2.07159      2.20227      1.98596        -0.027953      0.082474     -0.021874
O	      4.03505      4.09680      2.12772        -0.089687      0.030759      0.011230
O	      4.08989      1.97688      4.12357        -0.002499     -0.066300      0.072029
O	      6.22341      4.14876      4.17950         0.095655      0.011566      0.003937
O	      6.26802      1.99345      6.46941         0.039806     -0.011568      0.050890
O	      8.37644      4.04411      6.39576        -0.018192     -0.030960      0.052076
O	      2.12215      4.16741      4.01517         0.020236      0.004229     -0.125242
O	      4.13195      6.24940      4.07953         0.007486      0.015700      0.009966
O	      4.07814      4.24884      6.24412         0.003847      0.066533     -0.015970
O	      6.10613      6.24179      6.32298        -0.023203     -0.021620      0.014703
O	      6.32782      4.18977      8.35226         0.075614     -0.009886      0.012381
O	      8.22639      6.09197      8.33827         0.013573     -0.095311      0.045464
O	      1.98360      6.38434      6.20523        -0.018522      0.080908     -0.016981
O	      4.00144      8.30168      6.29706        -0.041561      0.074141      0.002531
O	      4.15038      6.25693      8.25168         0.001488     -0.049441      0.022931
O	      6.11099      8.23379      8.32240         0.089445     -0.034980     -0.017257
O	      5.99476      6.22030     10.37674        -0.019841     -0.025177     -0.004458
O	      8.18221      8.45836     10.63222        -0.014231      0.060883      0.074521
