# total energy = -208.96734443 eV
 
CRYSTAL
PRIMVEC
0.003364 6.093722 6.202510 
6.361042 0.006150 6.200263 
4.232709 4.053358 0.011675 
PRIMCOORD
36 1
Li	     10.51615      4.07428      6.26547         0.049680     -0.094429     -0.024957
Li	      8.37979      2.04964      6.19219         0.009779     -0.042762      0.003276
Li	      6.26085      3.99015      2.09712        -0.028272      0.049099     -0.035591
Li	      4.36240      8.15832      8.27148        -0.073249      0.028268     -0.014242
Li	      6.32601      8.12919     10.28631        -0.008432      0.032342      0.020343
Li	      4.24504      4.04158      4.12215         0.013404     -0.025784      0.061804
Li	      4.35539      1.99609      6.13267         0.000061      0.111107     -0.004299
Li	     10.56633      8.16623     10.38235         0.014569     -0.037679      0.078996
Li	      8.36711      8.12092      8.28767        -0.008094     -0.034762     -0.036995
Mn	      8.47113     10.11407     10.32781        -0.070825      0.110839      0.118257
Mn	      0.03768      2.02534      2.08351         0.042132     -0.144302     -0.071723
Mn	      8.46410      6.17171     10.35810         0.087490     -0.059448      0.143892
Cr	      2.13930      2.03294      4.12000         0.227677      0.003833     -0.004031
Fe	      4.19938      6.12652      6.36252        -0.018548     -0.034128     -0.484723
Cu	      6.34078      6.07900      8.26850        -0.163649      0.006556      0.184270
Ni	      8.54239      4.06856      8.21044         0.091743     -0.043413      0.021116
Ni	      6.37397      4.00069      6.20528        -0.196975      0.031146     -0.122293
Ni	      2.16089      4.06960      6.22005        -0.025141      0.036728     -0.160385
O	      6.37259      7.99785      8.12958         0.002925      0.099801      0.292799
O	      1.97248      2.05822      2.15046        -0.054608     -0.127144     -0.089456
O	      4.20278      4.17876      2.08711         0.175104      0.144842     -0.024274
O	      4.12688      1.90359      4.10780         0.094470     -0.067119      0.010377
O	      6.48160      4.09153      4.16912         0.058215     -0.065094     -0.160767
O	      6.32625      2.05468      6.39709         0.017096     -0.125663      0.059968
O	      8.44693      4.03943      6.08387         0.072952      0.003175     -0.082067
O	      2.15909      4.11691      4.21948        -0.020114      0.073088     -0.144276
O	      4.36544      6.11666      4.08787        -0.187566     -0.001642     -0.171035
O	      4.18647      4.20188      6.19880         0.084248     -0.545498      0.017144
O	      6.25353      6.02537      6.17228         0.134231      0.054221      0.055954
O	      6.49893      4.06246      8.22454        -0.034972     -0.105113      0.066538
O	      8.68368      6.09389      8.42571        -0.253344      0.148171     -0.040883
O	      2.24313      6.13390      6.08189        -0.337800      0.034366     -0.025676
O	      4.42513      7.99184      6.23749        -0.061818      0.629090     -0.022347
O	      4.09948      6.07904      8.30456         0.443673     -0.055221      0.607899
O	      6.20611      6.11511     10.25641        -0.099123     -0.047164      0.026187
O	      8.42732      8.12114     10.33876         0.023083      0.059691     -0.048799
