# total energy = -138.78691152 eV
 
CRYSTAL
PRIMVEC
2.063419 2.063583 -0.000017 
2.116360 -2.116587 12.463004 
4.195071 -4.195309 0.012781 
PRIMCOORD
24 1
Li	      5.26053     -3.19710      1.05758         0.009979     -0.009912     -0.034038
Li	      3.12858     -1.06263      5.06610         0.012107     -0.012243      0.026441
Li	      7.32843     -3.20475      7.38624        -0.008025      0.011057      0.000837
Li	      5.25423     -3.19194      9.39221        -0.002016      0.002619      0.010766
Li	      3.09459     -3.09397      3.01259         0.014554     -0.015804     -0.012368
Li	      3.15765     -3.15488     11.55094        -0.008121      0.006554      0.013978
Mn	      5.24645     -3.18407      5.18394        -0.021045      0.022311      0.038502
Mn	      5.21010     -1.08337      7.31626         0.012978     -0.013510      0.030904
Mn	      7.32074     -3.19431     11.42293        -0.002072      0.002125      0.009281
Ni	      3.11332     -1.04969      1.07587         0.018576     -0.019077     -0.063487
Ni	      3.13734     -1.07391      9.34282         0.022756     -0.024160     -0.005238
Ni	      3.14059      0.98619      3.07484        -0.048665      0.049419      0.008493
O	      5.16129     -3.09899      7.19540         0.034192     -0.033401     -0.045534
O	      3.02734     -0.96417     11.40558        -0.022512      0.022342      0.096860
O	      3.10819     -3.10819      0.87580         0.118118     -0.118273     -0.023720
O	      3.09873     -1.03516      3.13540         0.109488     -0.110255      0.133888
O	      3.13887     -3.13883      9.18926         0.110030     -0.111143     -0.063280
O	      2.98710      1.13908      5.25767        -0.033353      0.033420      0.036214
O	      5.24685     -3.18426      3.32578        -0.070254      0.071558      0.073456
O	      3.23250     -1.16853      7.22105        -0.022879      0.022796     -0.098682
O	      7.35061     -3.22420      9.46845        -0.115880      0.116353      0.046586
O	      5.36561     -3.30289     11.40382         0.019195     -0.018760     -0.084178
O	      5.33107     -1.20508      5.31587         0.026329     -0.026901     -0.008078
O	      1.09245     -1.09231      1.04331        -0.153477      0.152885     -0.087605
