# total energy = -209.33151510 eV
 
CRYSTAL
PRIMVEC
-0.008838 6.186944 6.284994 
6.206231 0.009244 6.267158 
4.162428 4.137629 -0.018741 
PRIMCOORD
36 1
Li	      8.27656      8.22715     12.48790        -0.077537      0.045587     -0.017423
Li	      4.18076      8.20915      8.32388         0.043380     -0.026537      0.004101
Li	      6.28252      8.22847     10.41364        -0.000525      0.003257     -0.039590
Li	      6.14815      4.15131      6.37165         0.034301     -0.025763      0.077367
Li	     10.29134      8.23776     10.44544        -0.006496      0.001526     -0.030889
Li	      8.32912      6.29344     10.39723         0.018374      0.045389     -0.043380
Li	      4.20788      6.22811      6.25850         0.045683      0.042413     -0.001458
Li	      8.27179      8.29056      8.41522        -0.018324      0.045670      0.044734
Li	      6.22387      6.17219      8.30853        -0.035219     -0.002571     -0.004787
Mn	      0.00824      6.15502      6.25146        -0.170150      0.164056      0.008947
Mn	      8.30775     10.26155     10.41224        -0.084663      0.045939     -0.191307
Mn	      8.20528      4.11205      8.39883         0.070920     -0.066808     -0.116144
Cr	      8.28467      6.21569      6.26943         0.010645     -0.288577     -0.063211
Fe	      4.16065      4.17678      4.20242         0.155776     -0.202315     -0.159931
Cu	      2.10526      6.17051      8.36375         0.042431      0.119602      0.038337
Cu	      6.21142      8.26466      6.28327         0.053975     -0.030346      0.056266
Ni	      6.18150      2.11413      8.37635        -0.013403      0.011287      0.013633
Ni	      6.20409      6.21779      4.18395         0.031794     -0.036220     -0.057405
O	      1.92472      6.16679      6.36304        -0.040245      0.029943     -0.258274
O	      6.23638      8.36410      8.29413        -0.016556     -0.120111     -0.049947
O	      2.04101      2.12813      2.11276         0.089964     -0.036007     -0.090336
O	      4.09377      4.13162      2.03093        -0.180440     -0.117152     -0.056207
O	      4.12525      2.03648      4.25701         0.098035      0.006537      0.098471
O	      6.27931      4.14890      4.07018        -0.003435     -0.087858      0.278685
O	      6.12636      1.92025      6.30728         0.064884     -0.040744     -0.103766
O	      8.39187      4.16873      6.15298         0.038658     -0.030272      0.006054
O	      2.15948      4.13178      4.18460        -0.076715      0.128558      0.084664
O	      4.16779      6.09874      4.16411        -0.132470      0.166576      0.124456
O	      4.12638      4.05755      6.18662        -0.032458      0.212949      0.105725
O	      6.28117      6.27857      6.24089        -0.040719     -0.060351      0.077907
O	      6.34086      4.12718      8.33327        -0.136380      0.120513      0.026590
O	      8.28132      6.06267      8.27464        -0.109298      0.123961      0.018903
O	      4.22308      8.39841      6.25775         0.014551     -0.092388     -0.028233
O	      4.07311      6.21349      8.51066         0.307829      0.013431      0.134513
O	      6.06984      6.20913     10.60373         0.035563     -0.032907      0.068988
O	      8.28383      8.42561     10.45430         0.018266     -0.030267      0.043947
