# total energy = -208.72430405 eV
 
CRYSTAL
PRIMVEC
-0.002860 6.399297 6.211488 
6.177875 0.009879 6.198812 
4.118435 4.257519 0.006728 
PRIMCOORD
36 1
Li	      8.21572      8.56295     12.32994         0.027356     -0.057151      0.058477
Li	      8.25228     10.58936     10.42992         0.020834     -0.014767     -0.050420
Li	     10.17371      6.46243      8.37687        -0.024853     -0.001108     -0.007969
Li	      6.09236      6.48007      4.19381        -0.041415      0.076945      0.010063
Li	      8.22399      6.36316      6.24979        -0.025758      0.014195     -0.062829
Li	      4.00572      8.38768      4.13596        -0.015317     -0.052152      0.007948
Li	      8.30928      6.44845     10.30315         0.034326     -0.022221      0.029085
Li	      4.14211      6.36671      6.05430         0.032690      0.004780     -0.018248
Li	      8.29628      8.41126      8.34136        -0.010742     -0.011725      0.008673
Mn	      4.12810      2.14216      2.08625        -0.207986     -0.131187      0.155080
Mn	      6.26042      8.47219     10.37997        -0.021994      0.027434     -0.045695
Mn	      6.20764      6.38630      8.23388         0.168927     -0.197820     -0.035607
Cr	      2.10542      4.29018      6.13107        -0.078850      0.042672      0.140352
Fe	      2.12351      0.11236      2.05972         0.180325     -0.008394      0.103947
Cu	      8.20425      4.32046      8.32947        -0.190745      0.006920      0.085400
Cu	      4.12651      4.33043      4.17352        -0.086638      0.236265     -0.002904
Cu	      6.17897      4.25442      6.22800        -0.006861     -0.030394     -0.037665
Cu	     10.22274      4.23939      6.16698         0.085722      0.000809     -0.009696
O	      6.06147      4.49188      8.21914         0.003277      0.137277     -0.033933
O	      8.09515      6.40124      8.25658        -0.282518     -0.038745     -0.048822
O	      8.09558      8.54463     10.33165        -0.027182     -0.066207     -0.003077
O	      2.23626      2.06248      2.12318         0.049329      0.102942     -0.059074
O	      4.24467      4.11812      2.21533        -0.009113      0.002929     -0.137422
O	      4.25031      2.14703      3.99480         0.148241      0.005393     -0.025400
O	      6.21026      4.04874      4.13720         0.217360     -0.154707     -0.028706
O	      6.13961      1.93365      6.02458        -0.020176     -0.031041      0.132596
O	      8.17061      4.22464      6.36447         0.135680      0.043305      0.096465
O	      2.09017      4.25585      4.16810        -0.190908     -0.072098     -0.292612
O	      4.14961      6.33624      4.09131        -0.029123     -0.042076     -0.043955
O	      4.12268      4.29568      6.09816        -0.031396      0.009209      0.169438
O	      6.17006      6.56957      6.31999         0.040313      0.026583     -0.034055
O	      2.02029      6.29933      6.33235        -0.052123      0.037723     -0.081168
O	      4.19139      8.65631      6.34543        -0.076368      0.051053      0.008544
O	      4.14179      6.61883      8.25239         0.152090      0.041943     -0.039827
O	      6.12060      8.49165      8.27609         0.111782     -0.001781      0.047927
O	      6.15442      6.54823     10.16625         0.021814      0.065197      0.045086
