# total energy = -209.81115431 eV
 
CRYSTAL
PRIMVEC
0.022259 6.218684 6.253812 
6.225751 0.024415 6.251714 
4.125098 4.118961 0.042099 
PRIMCOORD
36 1
Li	      2.14731      8.22193      6.30896         0.024988     -0.003040      0.016402
Li	      2.17745      6.21274      8.24613         0.041447     -0.005769     -0.065384
Li	      4.19544      8.20325      8.27820         0.052309     -0.053432     -0.029545
Li	      6.22420      2.10934      8.32895         0.002029      0.003765     -0.005113
Li	      4.15574      2.12748      6.27310        -0.013251      0.018270     -0.003226
Li	      4.12796      8.23253      4.26956        -0.032217      0.017533      0.035892
Li	      6.16162      8.28537      6.36902        -0.027245      0.018360      0.043736
Li	      4.13427      6.26970      6.34522        -0.004867      0.023796      0.032027
Li	      6.19715      6.24060      8.27251         0.002309     -0.002551     -0.065275
Mn	      4.18390     10.29891      6.34307         0.014837      0.015380      0.036250
Mn	      6.18458      2.07125      4.17663         0.044605     -0.050767     -0.035043
Mn	      8.26602      4.19043      8.33994         0.006925     -0.025818      0.004270
Cr	      6.09581      6.21719      4.22466        -0.124054      0.000125      0.022064
Fe	      4.15590      4.21345      8.24004         0.090173     -0.128492      0.041070
Ni	      4.17819      6.23014     10.36482         0.032006      0.002782      0.029914
Ni	      4.13575      4.11779      4.22947        -0.030550     -0.041594      0.028391
Ni	      6.22112      4.13550      6.30161         0.044536     -0.010863      0.001262
Ni	      2.12141      6.20563      4.23118        -0.019119     -0.011704      0.040019
O	      2.08802      2.20269      2.28082         0.009899      0.024238     -0.005787
O	      4.00551      4.16086      2.01813        -0.032725      0.021481     -0.039614
O	      4.21203      2.06979      4.15248         0.007484      0.008639     -0.001320
O	      6.20647      4.09585      4.23222        -0.000337      0.024306     -0.148371
O	      6.23151      2.03027      6.11953        -0.003383     -0.103962     -0.065923
O	      8.35099      4.14458      6.39803         0.105770      0.024945      0.092429
O	      2.09877      4.09274      4.04683        -0.192962     -0.156529     -0.016192
O	      4.22946      6.15379      4.22025         0.160602      0.149610     -0.002956
O	      4.18186      4.13265      6.31104        -0.120189     -0.015200     -0.069901
O	      6.26037      6.18322      6.04892         0.026269      0.131721     -0.043437
O	      6.30181      4.15568      8.32240         0.102920     -0.008256      0.178792
O	      8.29495      6.14036      8.44985        -0.030724     -0.030905     -0.134036
O	      1.94303      6.21609      6.24402        -0.054883      0.020458      0.153697
O	      4.14010      8.45239      6.25381         0.000786     -0.000251      0.033391
O	      4.19781      6.14069      8.36355         0.006677      0.125469     -0.177593
O	      6.28791      8.25633      8.52855        -0.106278      0.018635      0.036570
O	      6.21900      6.36964     10.58295         0.023446      0.000178      0.033016
O	      8.15877      8.28973     10.37566        -0.007236     -0.000559      0.049524
