# total energy = -214.41668871 eV
 
CRYSTAL
PRIMVEC
-0.000196 6.276077 6.208206 
6.210233 -0.004139 6.212621 
4.144975 4.192272 -0.008038 
PRIMCOORD
36 1
Li	      8.35833      8.35142     12.27118         0.015753     -0.056930      0.019522
Li	      4.12004      2.09248      2.09118         0.010858      0.000338     -0.046396
Li	      8.30397     10.29709     10.32575         0.055947     -0.107354     -0.026856
Li	      6.34296      8.39284     10.27736         0.017053     -0.014718      0.012045
Li	      2.10412      4.11320      2.12976         0.001198      0.009039      0.007512
Li	      2.09796      2.11034      4.01753        -0.011954     -0.012377      0.029999
Li	     10.16907      8.42178     10.33701        -0.102719      0.062685      0.002100
Li	      8.26209      6.41553     10.37337        -0.037527      0.122908      0.050252
Li	      8.27324      8.39710      8.48390        -0.015884      0.016332     -0.046498
Mn	      4.17519      6.27274      2.08915        -0.033861      0.057995      0.070276
Mn	      8.28353      6.29028      6.21225        -0.068426     -0.086755     -0.000280
Mn	      2.07366      4.19922      6.20875        -0.064394      0.027521     -0.027424
Cr	      6.23890      4.17229      6.19378         0.042720      0.051091      0.019748
Fe	      4.06900      6.35452      6.23163         0.105624     -0.076407     -0.123844
Fe	      6.20500      6.29977      8.48645        -0.020590      0.010058     -0.239634
Co	      6.21976      6.25997     12.29160        -0.009911     -0.071402     -0.104323
Cu	      4.12074      4.14905      4.12589        -0.049885      0.047775     -0.066565
Ni	      6.22652      4.20018      2.11640         0.066778     -0.074493     -0.003419
O	      8.24360      8.39276     10.38423         0.007053     -0.047292     -0.043819
O	      1.90754      2.06858      2.03606        -0.059240      0.097086      0.001171
O	      4.16744      4.33201      1.81769        -0.137153      0.125231     -0.068155
O	      4.12069      2.26794      4.31050         0.047459     -0.079149     -0.000772
O	      6.02662      4.16258      4.17768         0.114816      0.047637      0.091564
O	      6.07119      2.17762      6.32750         0.048573      0.041810      0.029772
O	      8.24938      4.39736      6.09267        -0.073771      0.041408      0.022017
O	      2.23827      4.14107      4.29629        -0.073142      0.011448     -0.087175
O	      4.12745      6.08519      4.05419         0.036634      0.051926     -0.074000
O	      4.19092      4.14775      6.37819         0.033292     -0.043254      0.171164
O	      6.27616      6.19677      6.30892         0.029900     -0.099110      0.014390
O	      6.27493      4.10046      8.22312         0.020261     -0.136708      0.028199
O	      8.31809      6.24174      8.16240         0.093483     -0.023455     -0.067109
O	      2.13838      6.26093      6.23857        -0.069747      0.027619     -0.075253
O	      4.22585      8.26747      6.11257         0.055530      0.086947      0.023891
O	      4.19474      6.30252      8.18859         0.037809      0.019092      0.181199
O	      6.17444      8.31963      8.13966        -0.014575     -0.026250      0.048854
O	      6.22793      6.26393     10.32715         0.002038     -0.000293      0.277847
