# total energy = -214.84353638 eV
 
CRYSTAL
PRIMVEC
-0.032579 6.412455 6.404882 
6.016664 -0.025003 6.395874 
4.003538 4.262179 -0.009167 
PRIMCOORD
36 1
Li	      1.97421      2.13651      0.20789         0.069170     -0.086150     -0.041330
Li	      1.90238      0.25514      2.04448         0.032959     -0.050873     -0.019903
Li	      3.82761      2.25688      2.08564         0.055522     -0.029243      0.012792
Li	      0.09995      1.97753      2.03310        -0.071643      0.059037      0.040312
Li	      2.00128      3.98265      2.13868        -0.048062      0.043532     -0.020638
Li	      1.96075      2.21159      3.96843        -0.065134     -0.063064     -0.021053
Li	      6.03230      4.27319      6.42503         0.065963     -0.065536     -0.046783
Li	      2.02460      6.22805      4.30657        -0.001222     -0.006013      0.115462
Li	      1.98638      4.26666      6.34679        -0.044314      0.082947     -0.001374
Mn	      3.94356      4.24285      4.11466         0.147095      0.015541      0.047836
Mn	      4.01586      4.28901      8.52946        -0.093890      0.103594      0.286377
Mn	      6.05615      6.43303      8.56439        -0.057980      0.118709      0.089763
Cr	      3.95085      0.07966      4.26016        -0.174311     -0.122428      0.007687
Fe	      6.01229      2.15730      4.36675         0.150688      0.105135     -0.290257
Fe	      3.89374      6.44192      6.35639        -0.235026     -0.222747     -0.009525
Co	      4.03841      4.21659      0.09553         0.048193     -0.057862      0.167574
Cu	      7.99240      6.34510      6.42444        -0.078100     -0.032898     -0.008102
Cu	      0.05540      4.20096      4.27392         0.284909     -0.128295      0.263481
O	      2.08415      4.22401      4.25922        -0.568169     -0.125590     -0.063892
O	      3.98947      8.39138      6.20954         0.017517      0.611765      0.100409
O	      1.95683      2.12153      2.08651         0.094838      0.060403     -0.066433
O	      3.97410      4.24130      2.12554        -0.090800      0.024249     -0.662203
O	      4.02367      2.13792      4.17903        -0.181664     -0.013967     -0.035500
O	      5.94133      4.13231      4.27185         0.413075      0.057992     -0.002084
O	      5.94042      2.06725      6.30056         0.024164     -0.414184      0.306770
O	      8.05816      4.28459      6.20610        -0.154779      0.199523      0.050275
O	      4.02459      6.13885      4.41854         0.040733      0.114513     -0.160913
O	      4.02171      4.33445      6.63204         0.060277     -0.134560     -0.041786
O	      6.03152      6.37948      6.68699        -0.038114     -0.019989      0.010510
O	      5.96115      4.47291      8.68533         0.036266     -0.013543     -0.079279
O	      7.96344      6.64659      8.63857         0.033003     -0.034988      0.022031
O	      1.97766      6.36248      6.41001         0.186381     -0.025363      0.021942
O	      4.07118      6.29507      8.54897         0.127005      0.025670     -0.013429
O	      6.09683      8.37598      8.61102         0.025603     -0.050322     -0.016122
O	      5.92922      6.54781     10.55390         0.088754      0.047144      0.153951
O	      8.00257      8.72700     10.50320        -0.098905      0.027862     -0.096565
