# total energy = -216.11241772 eV
 
CRYSTAL
PRIMVEC
0.095375 6.328047 6.157708 
6.268098 0.093639 6.159967 
4.217071 4.258837 0.024251 
PRIMCOORD
36 1
Li	      2.08346      8.29285      6.18947        -0.044267     -0.008494     -0.007319
Li	      2.03391      0.09715      2.02384        -0.048292      0.052213      0.087314
Li	      6.30485      2.25744      4.17469         0.023043      0.045871      0.007552
Li	      4.31306      6.31496      2.09628         0.084384     -0.021947      0.015669
Li	      6.25807      6.34160      4.13756        -0.003763     -0.050892      0.018458
Li	      4.37279      4.46355      4.12161         0.100496      0.086391     -0.023552
Li	      6.29774      4.27654      6.09533         0.003689      0.026260     -0.066848
Li	      2.27109      6.31871      4.22138        -0.022817      0.000376     -0.024856
Li	      4.15559      6.33805      6.09340         0.042679     -0.011403     -0.028984
Mn	      4.19390      2.16766      2.06709        -0.016937     -0.044454      0.079457
Mn	      2.13813      4.22903      2.08680        -0.043477      0.022817      0.010006
Mn	      8.44206      8.53385      8.22543         0.022092     -0.025174      0.038073
Cr	      8.31002      4.30742      4.15354         0.049276     -0.075935      0.012506
Fe	      4.26857      2.22547      6.07507        -0.098990     -0.031129      0.025633
Fe	      4.29109      8.34973      4.21682        -0.074371      0.178607     -0.094766
Co	      6.35608      6.40768      8.22711         0.005105     -0.028462      0.013105
Ni	      6.42890      6.46957     12.29210        -0.037155      0.070484     -0.008627
Ni	      2.18510      4.28680      6.11804         0.036586     -0.050066     -0.052683
O	      2.23635      2.29171      2.02871         0.056555      0.038158     -0.017090
O	      4.11121      4.14457      2.09733        -0.058196     -0.016420      0.027131
O	      4.19285      2.05212      4.06733         0.014259      0.040590     -0.232946
O	      6.42609      4.29621      4.09302        -0.141257      0.016562     -0.109614
O	      6.19343      2.16286      6.18938         0.140395      0.032938      0.080359
O	      8.45255      4.43522      6.20293        -0.075069     -0.082646      0.079837
O	      2.07519      4.26601      4.00868         0.112103     -0.009079     -0.092686
O	      4.26911      6.48985      4.10036        -0.041886     -0.238538     -0.064495
O	      4.23297      4.22010      6.24076         0.071893      0.136449      0.120851
O	      6.47491      6.49304      6.30805        -0.176911     -0.047321     -0.053279
O	      6.39525      4.45037      8.23608        -0.049414     -0.047908     -0.049039
O	      8.29473      6.36421      8.21346         0.033475      0.007567      0.028296
O	      2.13269      6.28669      6.19472         0.110786      0.039927      0.070642
O	      4.32456      8.51590      6.21907        -0.048815     -0.017892      0.235530
O	      4.38740      6.45605      8.25759        -0.030934     -0.005457     -0.037927
O	      6.30482      8.34804      8.24188         0.049925      0.046998      0.049083
O	      6.20667      6.28613     10.18606         0.152314      0.016568      0.048708
O	      8.51158      8.62638     10.18819        -0.096503     -0.045559     -0.083498
