# total energy = -219.01059196 eV
 
CRYSTAL
PRIMVEC
0.002176 6.291351 6.226563 
6.256274 0.007758 6.220917 
4.170321 4.189981 0.005804 
PRIMCOORD
36 1
Li	      0.06032      6.20851      6.14549        -0.029141     -0.027808      0.004019
Li	      8.37864      2.15198      6.22693         0.131434      0.038778     -0.005257
Li	      2.14502      6.37694      8.21419         0.032292      0.008024     -0.060316
Li	      8.41479     10.38285     10.39264         0.053042     -0.038365     -0.005641
Li	      8.27520      4.09350      8.25875        -0.018182      0.003500     -0.083372
Li	      2.01322      2.10453      4.06342        -0.042099     -0.003564      0.067694
Li	      4.09108      8.39650      4.26671        -0.053625     -0.020459      0.082066
Li	      4.16605      6.38797      6.26105        -0.008405      0.024634     -0.023282
Li	      8.37750      8.41947      8.38099         0.033717      0.032587     -0.065281
Mn	      4.09904      2.10930      2.05675        -0.066310     -0.033408     -0.283791
Mn	      4.14695      4.20503      4.14819         0.059525      0.144064      0.269245
Mn	      6.24486      6.24445      8.34354        -0.034111     -0.030517     -0.071199
Cr	      0.04264      2.08438      2.05250        -0.035243     -0.076785      0.024338
Fe	      6.43540      8.43621     10.32044        -0.198602     -0.089373      0.119593
Fe	      8.29068      6.15946      6.22659        -0.041711      0.240503     -0.071425
Co	      6.22097      4.18031      6.23600        -0.096677     -0.033559     -0.069492
Co	      2.07721      4.41812      6.27702        -0.009434     -0.927288     -0.103705
Ni	      8.35997      6.31966     10.36194         0.040452     -0.027319      0.336227
O	      1.99612      2.06569      2.04414        -0.062050      0.102776      0.119805
O	      4.13964      4.16792      2.22327        -0.067773      0.039130      0.020916
O	      4.20430      2.23870      4.10808         0.038009     -0.001714     -0.008013
O	      6.10654      4.15687      4.28986         0.040041      0.011430     -0.046761
O	      6.15982      2.19242      6.21364         0.033498      0.029536     -0.045401
O	      8.15467      4.25970      6.15363         0.051957     -0.151496      0.003125
O	      2.22136      4.19150      4.27735        -0.067479      0.180884      0.502790
O	      4.13959      6.13409      4.06576         0.340968     -0.064927     -0.111047
O	      4.21488      4.11062      6.09220         0.067680     -0.064985     -0.023151
O	      6.27411      6.16565      6.35615        -0.005334      0.080647     -0.038328
O	      6.21510      4.08653      8.17181         0.035926     -0.027457     -0.020069
O	      8.30295      6.25489      8.24367         0.032009     -0.027549     -0.151134
O	      2.12451      6.21840      6.19560        -0.016207      0.122139      0.060638
O	      4.25795      8.40406      6.35610        -0.023848      0.067915      0.139416
O	      4.31190      6.45901      8.34140         0.066837     -0.030972      0.077252
O	      6.35227      8.46962      8.31841        -0.049076      0.186261     -0.425941
O	      6.30101      6.38230     10.28801        -0.214941      0.070785     -0.028274
O	      8.31864      8.36285     10.41058         0.082859      0.293950     -0.086246
