# total energy = -220.53357237 eV
 
CRYSTAL
PRIMVEC
-0.046295 6.154469 6.290186 
6.236411 0.000756 6.242502 
4.156014 4.069790 0.002010 
PRIMCOORD
36 1
Li	      4.18926     10.11193      6.27176         0.061327     -0.062162      0.090587
Li	      2.20994      8.10866      6.26634         0.107631     -0.048605      0.009627
Li	      2.09694      6.16209      8.19004        -0.056987      0.167550     -0.122084
Li	      4.10144      8.19151      8.23686        -0.105628      0.074878     -0.123637
Li	      4.15459      6.12476     10.39645        -0.015513      0.020079      0.027583
Li	      4.11158      4.11652      4.10729        -0.004079     -0.020364     -0.030422
Li	      4.11541      8.17979      4.31603        -0.046540     -0.037463      0.037372
Li	      2.03495      6.16548      4.30529         0.044589      0.039538      0.008345
Li	      4.02193      6.21145      6.29077        -0.042405      0.112802     -0.073622
Mn	      6.22594      2.08216      4.16223        -0.005976     -0.458530     -0.069758
Mn	      4.17563      6.05591      2.12411         0.093301      0.032608      0.060179
Mn	      8.24857      8.21277      8.39923         0.056724      0.097685      0.134746
Cr	      1.93322      4.21901      6.22304        -0.070833     -0.353137      0.005832
Fe	      2.04878      2.03135      4.13105         0.186010     -0.166236      0.090926
Fe	      8.31061      6.07762      6.23067        -0.159128     -0.038688      0.065063
Co	      2.07204      4.07930      2.14326        -0.043020      0.013488      0.012084
Co	      6.22658      4.08236      6.30944         0.032713      0.231328      0.178332
Co	      6.13365      6.15787      8.47820         0.098262      0.149798     -1.008188
O	      2.09231      2.14626      2.16346         0.376674     -0.003222     -0.165583
O	      3.96764      4.17960      2.05737        -0.018721     -0.253115      0.030554
O	      4.20255      2.02997      4.28411         0.009190      0.033790     -0.078250
O	      6.22994      4.05084      4.38034         0.001879      0.116921     -0.032229
O	      6.17011      2.16493      6.38092         0.084824     -0.101783      0.027497
O	      8.15213      4.11067      6.45626        -0.013384     -0.201618     -0.076737
O	      2.09404      4.00066      4.15658         0.026849      0.232394     -0.016952
O	      4.24535      6.10698      4.01790        -0.200114     -0.070995      0.136899
O	      4.20895      4.03158      6.43017         0.015462      0.106701     -0.105044
O	      6.27977      6.06719      6.24170        -0.160092     -0.066928      0.474421
O	      6.32319      4.05639      8.26946        -0.017641      0.798186      0.122165
O	      8.23581      6.09527      8.31745        -0.865591      0.083629      0.332177
O	      2.05616      6.09005      6.25113        -0.034186      0.203346      0.048310
O	      4.19620      8.16667      6.22884         0.050386      0.059419     -0.023081
O	      4.20054      6.05020      8.34335         0.728859      0.092831      0.240470
O	      6.13700      8.18644      8.24883        -0.061589     -0.914531      0.140396
O	      6.17664      6.28031     10.36842        -0.090578      0.128414     -0.396498
O	      8.12715      8.20727     10.30007         0.037323      0.001993      0.048521
