# total energy = -214.33554710 eV
 
CRYSTAL
PRIMVEC
0.019176 6.226655 6.359116 
6.228244 0.039199 6.339118 
4.161823 4.147139 0.016604 
PRIMCOORD
36 1
Li	      4.14641      4.14756      0.10247        -0.009450     -0.011947      0.000090
Li	      4.12516      2.15161      2.20929         0.003777     -0.040503      0.064159
Li	      4.08098      0.15119      4.21438         0.005414      0.037648      0.003968
Li	      4.18874      6.16351      2.13010         0.021923     -0.003215      0.030912
Li	      2.18928      4.11070      2.12249         0.064448     -0.003786      0.009423
Li	      2.16624      2.01702      4.21888         0.004019      0.033427     -0.008339
Li	      4.20058      4.12699      4.10238        -0.028345      0.020055     -0.065666
Li	      6.25386      4.17710      6.38058        -0.001109     -0.003460      0.144020
Li	      6.22371      6.23207      8.44111         0.005417      0.020092     -0.000848
Mn	      6.18226      4.15667      2.20812        -0.152305      0.124618      0.085685
Mn	      8.31488      6.22630     10.54224         0.049407     -0.107796     -0.101078
Mn	      4.19204      4.19978      8.47266         0.087775     -0.098808     -0.250818
Cr	      6.24405      4.20868     10.54394         0.101390     -0.020844     -0.037248
Fe	      8.24403      2.23296      6.45449         0.018987     -0.017016     -0.069486
Fe	      4.15473      2.02276      6.26011         0.023833      0.009857      0.165025
Cu	      6.20768      8.29348      6.36800        -0.044686     -0.036006     -0.070462
Ni	      6.17250      2.10520      4.26237         0.002833     -0.020200     -0.001978
Ni	      4.22719      6.21853      6.34402         0.079616     -0.070890     -0.020297
O	      4.34469      4.11491      2.11618         0.119733     -0.008270     -0.014219
O	      2.09591      1.93404      2.03879         0.048903     -0.100146      0.040223
O	      4.17404      2.09942      4.36177        -0.125746      0.041550     -0.188487
O	      6.24417      4.16366      4.06079         0.007316      0.063180     -0.114222
O	      6.25943      2.11557      6.29884        -0.049434      0.001974      0.100468
O	      8.29189      4.18091      6.42245         0.003257      0.047770     -0.003936
O	      2.01101      4.30197      4.13638        -0.056123      0.071098      0.032531
O	      4.02649      6.29164      4.28247        -0.075808     -0.001990     -0.104020
O	      4.19450      4.11271      6.57162         0.027615     -0.015085      0.199818
O	      6.30134      6.36351      6.36801         0.024705     -0.144462      0.031091
O	      6.07453      4.21290      8.55947        -0.115666      0.005501      0.073454
O	      8.32624      6.38494      8.56974        -0.017280      0.100339      0.049418
O	      2.12703      6.18151      6.29346        -0.084995      0.107668     -0.043175
O	      4.06206      8.26880      6.23942        -0.017084      0.120345     -0.089613
O	      4.07013      6.11997      8.43718        -0.060328     -0.038429      0.075035
O	      6.36603      8.43054      8.55610         0.037126      0.020915     -0.030194
O	      6.39700      6.22810     10.56059         0.038429     -0.092323      0.015434
O	      8.34710      8.23307     10.53053         0.062436      0.009142      0.093332
