# total energy = -92.57445268 eV
 
CRYSTAL
PRIMVEC
2.074044 2.074150 0.000108 
-4.317761 6.392408 2.024728 
0.046311 -2.120323 6.132249 
PRIMCOORD
16 1
Li	     -1.31185      3.38477      5.07833         0.017933     -0.013829      0.016318
Li	     -3.20471      3.20249      7.13852        -0.000019     -0.000254     -0.002359
Li	     -3.06884      7.21667      3.06650        -0.019569      0.013768     -0.014643
Li	     -1.06789      1.06759      3.05995        -0.000631     -0.001304     -0.000852
Mn	      1.04957      1.02441      5.07838        -0.020777      0.017358     -0.012783
Mn	     -1.11175      3.18425      1.04148         0.015610     -0.011771      0.010378
Ni	     -1.16498      5.31210      3.08176         0.031495     -0.030897     -0.030382
Ni	     -3.21543      5.28900      5.06284        -0.032439      0.030770      0.028567
O	     -1.17507      5.32258      5.13521         0.111140     -0.113237      0.121249
O	      0.90812     -0.90791      5.17163        -0.034754      0.025139      0.084155
O	      0.86063      3.28665      0.94870        -0.020590      0.018892     -0.009020
O	     -1.11671      3.18923      2.89797         0.087013     -0.087071     -0.074020
O	     -0.92419      2.99639      7.08044         0.036246     -0.024671     -0.080701
O	     -3.20551      5.27866      3.00924        -0.107719      0.111940     -0.122655
O	      1.05432      1.01942      3.22168        -0.086609      0.086566      0.077792
O	     -0.92298      0.92215      5.17105         0.023670     -0.021400      0.008957
