# total energy = -213.12097536 eV
 
CRYSTAL
PRIMVEC
0.019849 6.359015 6.252545 
6.217021 0.011631 6.261345 
4.131857 4.232364 0.021063 
PRIMCOORD
36 1
Li	      2.11362      8.39417      6.30818        -0.004167     -0.020046     -0.076329
Li	      2.05074      6.44086      8.19478         0.049551     -0.064580     -0.066163
Li	      2.12572      4.14663      2.21309        -0.044701      0.014887      0.021996
Li	      4.03460      4.31535      4.17232         0.007186     -0.010937     -0.016341
Li	      4.16388      2.16489      6.30428        -0.028821      0.019500      0.072257
Li	      4.26812      8.34603      4.28384         0.041710      0.021748     -0.024584
Li	      2.18736      6.32265      4.20938         0.008539     -0.032352     -0.007633
Li	      2.06901      4.33412      6.10271         0.055801      0.010807     -0.027768
Li	      4.03173      6.38012      6.15150        -0.030935     -0.008202      0.037519
Mn	      4.08191      2.15457      2.04029         0.134732     -0.135119      0.004547
Mn	      6.21729      4.28505      6.29072        -0.010579      0.132695      0.215439
Mn	      8.24757      8.48831      8.33831         0.158657      0.198669      0.074756
Cr	      6.27055      6.34298      8.37400         0.003895      0.136823     -0.071229
Fe	      0.15909      6.30896      6.22147        -0.065816      0.000052     -0.043148
Fe	      8.27032      4.22886      4.25549        -0.141785     -0.050384     -0.157588
Cu	      6.17120      2.15310      4.20802        -0.056742      0.081520      0.017760
Cu	      4.20632      6.28582      2.14707        -0.244016      0.058751      0.028826
Ni	      6.16836      6.41595      4.22193         0.228628     -0.183494      0.185118
O	      2.08265      4.03701      4.19077         0.052710      0.588331     -0.004098
O	      4.22388      6.35166      4.07866        -0.341478     -0.064260     -0.213013
O	      2.11233      2.06882      2.15199        -0.039051      0.029799     -0.147708
O	      4.14193      4.12000      1.98492        -0.014548     -0.023347      0.112074
O	      4.17088      2.06901      4.02585         0.093941     -0.020300     -0.006367
O	      6.22879      4.44177      4.37170        -0.071324     -0.453724      0.057406
O	      6.21754      2.22748      6.27550         0.012324      0.014947      0.227614
O	      8.20574      4.26819      6.21301         0.015103      0.001125      0.106782
O	      4.27948      4.25537      6.40740         0.118841     -0.002214     -0.104402
O	      6.24294      6.20743      6.36816         0.001663     -0.107757     -0.015047
O	      6.17005      4.35356      8.23468         0.325878      0.000062     -0.081678
O	      8.25469      6.54437      8.41467         0.109620     -0.305344     -0.029193
O	      2.02443      6.36419      6.17506         0.021347      0.077119      0.071907
O	      4.13544      8.53701      6.40202        -0.065162     -0.078855     -0.035497
O	      4.22023      6.35147      8.40280        -0.010686      0.191961     -0.012723
O	      6.22206      8.38759      8.39467        -0.425328     -0.167008     -0.066986
O	      6.13829      6.24404     10.43960         0.111503      0.124562     -0.047096
O	      8.14326      8.59807     10.28679         0.043513      0.024560      0.020590
