# total energy = -213.19154999 eV
 
CRYSTAL
PRIMVEC
-0.029191 6.421109 6.073898 
6.293391 -0.012762 6.057139 
4.191236 4.265078 -0.004057 
PRIMCOORD
36 1
Li	      4.18087      4.25350      0.09084         0.027688     -0.087564     -0.041675
Li	      2.11982      2.12318      0.05736         0.075502     -0.029226     -0.117231
Li	      2.02078      0.08760      1.92992        -0.025248     -0.012903     -0.029627
Li	      4.13211      8.58944      8.00173         0.085053      0.017150     -0.062413
Li	      6.25292      2.12554      4.08508         0.032138     -0.035575     -0.038885
Li	      2.18658      4.16569      1.93874         0.006002      0.010552      0.004245
Li	      4.24855      2.05340      6.03902         0.004492     -0.042529      0.053282
Li	      6.17914      8.63589      6.10054        -0.058039      0.112238      0.023010
Li	      4.11311      6.49416      6.12043        -0.040019      0.078521     -0.005242
Mn	      4.17267      4.20277      4.02416        -0.150613     -0.040055      0.223140
Mn	      2.08124      6.42479      4.12333        -0.085288      0.036968      0.160429
Mn	      6.27361      6.43460      8.02834         0.137155      0.138058     -0.146034
Cr	      6.33248      4.20802      6.05242        -0.314858     -0.039317      0.113213
Fe	      4.20945      8.52538      4.18150         0.059593      0.005138     -0.111919
Fe	      4.09301      4.30004      8.00624        -0.002634     -0.068686      0.094557
Cu	      4.19707      0.04836      4.07492        -0.033776      0.026313     -0.176699
Cu	      0.10393      2.02351      1.93308        -0.059668     -0.146349      0.017026
Cu	      2.15489      2.11297      4.03418         0.107558     -0.015166      0.439302
O	      6.29767      2.23111      6.13484        -0.005714      0.064409     -0.130873
O	      8.29199      4.27431      5.94746         0.256032      0.005296      0.030525
O	      4.18468      8.54181      5.99602        -0.047309     -0.001561      0.199366
O	      2.05399      2.15814      2.15245        -0.137366      0.029704     -0.113213
O	      4.16085      4.23818      2.15589         0.014118      0.119257     -0.162302
O	      4.12055      2.27732      4.04366         0.026895     -0.118114     -0.024683
O	      6.11358      4.19640      4.08152         0.079014     -0.117062     -0.183536
O	      2.12107      4.46641      4.05858         0.056614      0.055999     -0.054504
O	      4.08389      6.39320      3.96696         0.002600      0.090435     -0.006951
O	      4.27418      4.26997      6.03196        -0.042705     -0.000931     -0.067723
O	      6.26624      6.27689      6.10222         0.018528     -0.021084     -0.092568
O	      6.23442      4.45028      8.07817         0.049203     -0.026452      0.059289
O	      8.24485      6.48713      8.15796         0.084844     -0.021618     -0.115830
O	      2.07095      6.43534      5.95274         0.006894      0.049694     -0.011243
O	      4.31694      6.32881      8.19340        -0.078881      0.100851      0.117540
O	      6.34597      8.36173      8.06328        -0.125210     -0.099222      0.011416
O	      6.39137      6.33651     10.00280         0.093385      0.040052      0.118637
O	      8.46380      8.38775     10.03076        -0.015979     -0.057223      0.028174
