# total energy = -213.01835226 eV
 
CRYSTAL
PRIMVEC
0.044859 6.242743 6.236171 
6.277974 0.026728 6.254528 
4.187778 4.176298 0.015714 
PRIMCOORD
36 1
Li	      6.21863      0.15946      6.19165        -0.049064     -0.000456      0.008860
Li	      8.25792      2.14912      6.21103        -0.024020      0.001298     -0.001782
Li	      8.47997     10.36672     10.52644         0.003057     -0.021308      0.010030
Li	      6.19893      2.15828      8.14305         0.008920     -0.020613     -0.052172
Li	      4.32486      2.04611      6.31444         0.039087     -0.027187     -0.038226
Li	      6.29978      4.07135      6.30046        -0.004743     -0.005944     -0.015242
Li	      8.36717      6.34357     10.40120        -0.004661      0.003000     -0.013448
Li	      2.17671      4.18720      6.27102         0.019955      0.002882      0.028934
Li	      8.41928      8.29296      8.30128         0.002109     -0.003698      0.014484
Mn	      2.15341      6.25747      8.26152         0.057940     -0.000437      0.030302
Mn	      8.35656      4.24462      8.26009        -0.030512      0.016877     -0.144764
Mn	     10.41749      8.40527     10.46919        -0.090704      0.057065     -0.034161
Cr	      4.15786      4.23092      4.20747         0.073630     -0.010999      0.065631
Fe	      4.25303      8.31857      8.22733        -0.007924      0.034055      0.091166
Fe	      6.33182      6.25105      4.30758         0.039777     -0.067848     -0.093302
Ni	      6.37909      8.29645     10.48972         0.033579      0.029892     -0.069712
Ni	      4.21170      6.23732      6.25587        -0.031027     -0.041428      0.064824
Ni	      6.33884      6.26280      8.31699        -0.045493      0.040177     -0.058593
O	      6.30154      2.10159      6.16476        -0.032531     -0.003032      0.177937
O	      2.17755      2.12718      2.15274        -0.028681      0.060278      0.030513
O	      4.09628      4.13232      2.14013        -0.063904      0.046025     -0.014047
O	      4.15622      2.21123      4.11640        -0.064042      0.022586      0.016333
O	      6.17853      4.23514      4.01676        -0.024865      0.044971     -0.011545
O	      8.34102      4.18414      6.44786         0.038090      0.025126      0.103614
O	      2.09818      4.11293      4.07644        -0.004824      0.044090     -0.067329
O	      4.28010      6.30084      4.18147        -0.014943      0.009632     -0.095085
O	      4.20457      4.27343      6.13660        -0.017799     -0.059829      0.019221
O	      6.19667      6.25695      6.22979         0.045777      0.007466      0.001260
O	      6.41040      4.19798      8.47935         0.046282     -0.106840      0.088250
O	      8.36486      6.11945      8.34279         0.091017     -0.086501     -0.031546
O	      2.23927      6.22400      6.40665        -0.034084      0.032688     -0.047221
O	      4.23850      8.27479      6.19893         0.013486      0.058364     -0.149957
O	      4.23936      6.35697      8.32224        -0.059856     -0.044408      0.145347
O	      6.25936      8.37476      8.42966         0.024703      0.079304     -0.111374
O	      6.31208      6.14929     10.41506         0.001937     -0.120236      0.100303
O	      8.53833      8.34641     10.39338         0.094330      0.004988      0.052496
