# total energy = -220.48563678 eV
 
CRYSTAL
PRIMVEC
0.028933 6.048800 6.404854 
6.299987 0.002232 6.431706 
4.208420 4.059496 -0.006731 
PRIMCOORD
36 1
Li	      6.30382      6.07452     12.73314        -0.019150      0.027131      0.002344
Li	      2.24818      6.07691      8.60634         0.015863      0.009302     -0.016747
Li	      4.18034      6.07065     10.57787        -0.007355      0.020971      0.008174
Li	     10.45371      6.08904      8.54525        -0.052018      0.030103     -0.009043
Li	      6.36532      5.96447      4.39894         0.014794     -0.031624      0.130559
Li	      6.28897      4.09836      6.38882        -0.012361      0.027151     -0.024064
Li	      4.27016      6.02298      6.55034         0.078045     -0.015012     -0.001420
Li	      4.28101      4.14101      8.55101         0.063954     -0.036998      0.009382
Li	      6.27722      6.02290      8.52049         0.016823     -0.031287      0.005803
Mn	      8.33715      2.03245      6.42633        -0.098242      0.007203      0.007454
Mn	      8.38153      4.09853      8.53216        -0.094747      0.148187     -0.058369
Mn	      4.21796      4.08727      4.26662         0.056222      0.010811      0.181835
Cr	      4.23857      8.03905      8.48362         0.034911     -0.118782     -0.004441
Fe	      6.30797      8.06136     10.66295         0.061644     -0.105644     -0.089330
Fe	      0.02439      4.03120      4.26449         0.028901     -0.038059      0.050528
Fe	      6.37955      8.05425      6.53613        -0.073101     -0.047937     -0.003024
Co	      2.13266      6.05731      4.30107         0.003830     -0.009776     -0.069178
Cu	      8.41660      6.02607      6.41961         0.099408     -0.061998      0.147000
O	      6.46728      6.11525      6.42193        -0.218013      0.051620     -0.010986
O	      2.18048      2.10568      1.97938        -0.035738     -0.082476     -0.288284
O	      4.07145      4.05369      2.30465        -0.010065     -0.032722      0.030152
O	      4.23467      2.12083      4.08750        -0.044681      0.138392     -0.107245
O	      6.10930      4.02387      4.22085        -0.106007      0.073395      0.005743
O	      6.18394      2.01483      6.24600         0.193689      0.011268      0.088015
O	      8.38042      3.98617      6.36744         0.035907     -0.286070     -0.031788
O	      2.16631      4.11604      4.40406         0.042633      0.007919     -0.008565
O	      4.11087      6.02592      4.32361        -0.038339     -0.065981     -0.018623
O	      4.16881      3.99122      6.25077         0.159994      0.153957     -0.303587
O	      6.43059      3.99090      8.77251         0.075032     -0.006765     -0.127327
O	      8.42836      5.99712      8.79995        -0.005400     -0.068776      0.100268
O	      2.11722      6.10965      6.28432         0.014167      0.105262      0.045743
O	      4.34451      8.08041      6.37898        -0.072544      0.055820      0.052899
O	      4.22826      6.11123      8.57318        -0.032520      0.048427     -0.038287
O	      6.27418      8.12287      8.53140        -0.102016      0.038840      0.074805
O	      6.47957      6.03305     10.70632         0.043899      0.094675      0.021689
O	      8.44446      8.01254     10.76367        -0.017418     -0.020527      0.247917
