# total energy = -223.31185511 eV
 
CRYSTAL
PRIMVEC
0.024510 6.387564 6.310635 
6.167732 -0.009245 6.344345 
4.100483 4.269681 0.005216 
PRIMCOORD
36 1
Li	      6.15761      4.27510      2.23111         0.023840     -0.048068     -0.008041
Li	      6.12471      2.28350      4.33365         0.000732      0.003671      0.024617
Li	      0.05133      2.09727      2.09606        -0.021457      0.002848      0.004654
Li	      6.11089      6.29002      4.35268        -0.003500      0.001476     -0.001067
Li	      4.29647      4.15686      4.34955         0.036957     -0.022475      0.035042
Li	      4.10437      2.24337      6.23554         0.011414      0.006238     -0.041144
Li	      5.98932      4.34688      6.22729         0.016807      0.127974     -0.049397
Li	      4.20374      6.18897      6.27254         0.009692      0.021301     -0.057241
Li	      4.12539      4.23757      8.25229         0.008288     -0.001436     -0.011564
Mn	      2.04651      8.46154      6.33949        -0.007757      0.005269     -0.082717
Mn	      8.14270      4.31763      4.29020         0.064893      0.029288      0.061818
Mn	      6.14883      6.38195      8.35968         0.024182     -0.005893     -0.007722
Cr	      2.12750      4.18481      6.27066         0.045403      0.004374     -0.005733
Fe	      4.12996      2.16835      2.26531         0.026812     -0.012769     -0.128876
Fe	      8.22312      4.26991      8.42103        -0.033954      0.020472      0.011884
Fe	      2.17494      6.40676      4.19343        -0.143376      0.040609      0.003270
Co	      4.10424      4.26566      0.02031        -0.086166     -0.033694     -0.039864
Co	     10.26125      8.52894     10.55992        -0.038891     -0.021540      0.031423
O	      2.12037      2.22567      1.97745        -0.054309     -0.045565      0.022800
O	      4.07604      4.19977      1.98915         0.036103      0.003931     -0.043402
O	      4.14903      2.15253      4.14498         0.000320     -0.012774      0.079976
O	      6.30181      4.25494      4.24134        -0.017763      0.014665     -0.020176
O	      6.29812      1.90734      6.36679        -0.018866     -0.041651      0.008432
O	      8.31293      4.30313      6.39096         0.027772     -0.014039     -0.024167
O	      1.94730      4.35495      4.18187        -0.006172     -0.039835      0.027725
O	      4.06984      6.60505      4.17338         0.101016      0.036468     -0.006752
O	      4.05594      4.25307      6.28643        -0.030179      0.020439      0.000618
O	      6.14783      6.48548      6.30787         0.007151      0.005033      0.018189
O	      6.19676      4.37156      8.60660        -0.042831      0.023408      0.060234
O	      8.10702      6.31729      8.54706        -0.010728      0.014511     -0.017873
O	      1.96619      6.26230      6.22170        -0.007888     -0.029307      0.033768
O	      4.07450      8.66022      6.22234         0.000901     -0.014078      0.046696
O	      4.21237      6.47652      8.51649        -0.021360     -0.015153      0.005761
O	      6.13316      8.40288      8.29626         0.043498     -0.010826     -0.032918
O	      6.10158      6.24659     10.69854         0.032256     -0.019516      0.033678
O	      8.30889      8.44858     10.68055         0.027161      0.006644      0.068071
