# total energy = -217.24557859 eV
 
CRYSTAL
PRIMVEC
0.019090 6.267211 6.141483 
6.444723 0.001346 6.160016 
4.288352 4.182017 0.009265 
PRIMCOORD
36 1
Li	      4.39806      8.37534      8.16188         0.028100     -0.034862      0.044888
Li	      6.42302      2.06529      4.13610        -0.024450     -0.039891     -0.032869
Li	      6.38985      2.21760      8.06717        -0.027151     -0.014407      0.022815
Li	      8.39605      4.27035      8.10121         0.026098      0.010827     -0.028122
Li	      8.63005      6.32620      6.27029         0.024064      0.009623     -0.037845
Li	      6.42177      4.08778      6.36357        -0.048978      0.012013     -0.092254
Li	      6.52336      8.29398      6.26915         0.040443     -0.027707      0.021069
Li	      4.33995      4.11159      8.10523         0.000622      0.018437     -0.007180
Li	      6.61370      6.18677      8.10555         0.007246      0.021871     -0.033670
Mn	      6.42223     10.37851      8.20466         0.010678     -0.163368      0.051905
Mn	      4.33313      6.26671     10.25676        -0.002153      0.053991     -0.062725
Mn	      4.29442      4.14092      4.10093        -0.019685     -0.078199     -0.005846
Cr	      6.46888      4.18676     10.19129         0.077047      0.134585      0.024537
Fe	      2.18605      2.11920      4.08429        -0.033769      0.028960      0.102474
Fe	      8.55895      6.30164     10.06706         0.014433     -0.013400      0.247081
Fe	      4.40076      6.26422      6.24565        -0.100629     -0.002350      0.028459
Cu	      8.53851      2.12051      6.23901         0.047612      0.038637      0.020912
Ni	      4.27417      4.22056      0.06169         0.002091     -0.044381      0.032518
O	      6.56929      2.03943      6.12920        -0.076012      0.132739      0.031943
O	      2.12688      1.96299      2.11189        -0.025223     -0.078898     -0.084384
O	      4.46540      4.14182      2.15174         0.004262     -0.009912      0.040417
O	      4.16700      1.99581      4.15393         0.056995     -0.065958     -0.002614
O	      6.35089      4.24819      4.00729        -0.054276     -0.073949     -0.062802
O	      8.65494      4.10285      6.05904        -0.065965      0.093308      0.009623
O	      2.16672      4.18101      4.06287         0.001554     -0.004038     -0.021196
O	      4.24296      6.32189      4.17049         0.017123      0.069502     -0.047281
O	      4.28917      4.27402      6.00278        -0.017372     -0.053223      0.019134
O	      6.31770      6.30086      6.07321         0.070433     -0.021158      0.067108
O	      6.44590      4.20630      8.28448        -0.014427     -0.013983     -0.042404
O	      8.60666      6.28689      8.24923         0.027625      0.005552     -0.285726
O	      2.18225      6.33495      6.23758         0.087022     -0.072833      0.083349
O	      4.20487      8.30811      6.10749         0.048095      0.007990      0.048030
O	      4.12289      6.26216      8.25405        -0.059946      0.004974      0.062063
O	      6.45328      8.53878      8.23304        -0.016956      0.150148     -0.018857
O	      6.57148      6.19922     10.28016        -0.024721     -0.032717     -0.039758
O	      8.73307      8.38286     10.30919         0.020169      0.052077     -0.052795
