# total energy = -217.05786929 eV
 
CRYSTAL
PRIMVEC
0.025673 6.283296 6.252408 
6.405401 0.019218 6.258892 
4.250358 4.172996 0.033373 
PRIMCOORD
36 1
Li	      6.20871      0.20426      6.22042        -0.002220     -0.033467      0.009330
Li	      8.41242      2.21439      6.28150         0.062113     -0.048053     -0.004188
Li	      8.50588      4.23374      4.38120        -0.022372      0.036666     -0.113069
Li	      6.25664      2.14322      4.32649        -0.024313     -0.018161     -0.047991
Li	      6.51718      2.09976      8.15363         0.112773     -0.014619      0.077858
Li	      8.52872      4.16235      8.19897         0.022673      0.013908      0.042318
Li	      2.19795      2.04129      4.14877        -0.007115     -0.030314     -0.053007
Li	      4.40347      1.96159      6.21571        -0.102124      0.055271      0.002484
Li	      6.36892      8.39109      6.27838         0.005055     -0.020547      0.021516
Mn	      0.10394      4.19736      4.20489         0.037374     -0.070460      0.113067
Mn	      8.54617      8.30963      8.35662        -0.022818      0.068194     -0.006214
Mn	      6.42203      6.28500      8.37387        -0.034167      0.020275      0.009759
Cr	      4.32039      6.28343      6.27437        -0.033608      0.063902     -0.016923
Fe	      2.05147      0.08769      2.04949         0.033284     -0.082748      0.014741
Fe	      4.18417      2.17498      2.09122         0.055295     -0.114843     -0.114404
Fe	      4.24235      4.12982      4.21621        -0.134892      0.174456     -0.022124
Cu	      6.55866      4.09275      6.22770        -0.192573      0.166824      0.041812
Cu	      2.14192      6.28724      4.29169        -0.029464     -0.004218      0.052982
O	      6.40522      2.17110      6.25379         0.009327     -0.042630     -0.020425
O	      2.25969      2.01012      2.07452        -0.190906      0.130559     -0.046425
O	      4.29388      4.16233      2.14546        -0.090828      0.141424     -0.102744
O	      4.18265      2.21044      4.08603         0.021615     -0.182867      0.137723
O	      6.23221      4.16837      4.02801         0.193028     -0.027268      0.276551
O	      8.47786      4.19452      6.26297         0.029198     -0.021486     -0.000954
O	      2.13583      4.33627      4.21641         0.053596     -0.069880      0.036692
O	      4.39217      6.35973      4.29557         0.098932     -0.029961     -0.030265
O	      4.32313      4.26271      6.29709         0.059257     -0.083591      0.011610
O	      6.31528      6.18363      6.46638         0.110672     -0.023486     -0.025444
O	      6.49042      4.32800      8.50075         0.027988     -0.070394     -0.347614
O	      8.31458      6.41152      8.34813         0.089623     -0.057714     -0.081652
O	      2.32218      6.24743      6.38194         0.036938     -0.024110     -0.088360
O	      4.33102      8.28264      6.25861         0.011001      0.023578      0.198000
O	      4.34803      6.20233      8.32708        -0.043324     -0.049531      0.028080
O	      6.28318      8.23954      8.38455         0.059324      0.097212     -0.010774
O	      6.36942      6.15209     10.32216        -0.113917      0.078803      0.019320
O	      8.77090      8.24668     10.31513        -0.084428      0.049276      0.038735
