# total energy = -217.40299954 eV
 
CRYSTAL
PRIMVEC
-0.016747 6.183793 6.286315 
6.305696 -0.008498 6.278001 
4.200361 4.113687 -0.002271 
PRIMCOORD
36 1
Li	      8.31274      2.13897      6.30476        -0.059781      0.037638      0.028937
Li	      6.25498      4.15239      2.27606        -0.031809      0.005092     -0.067135
Li	      4.20146      2.06897      2.28207         0.042141      0.017782      0.015898
Li	      6.25987      2.20078      4.10155        -0.026507     -0.020172     -0.059022
Li	      2.09949      4.04976      2.09361         0.011289     -0.009968      0.033521
Li	      2.18296      1.90368      4.06401         0.015819      0.011816     -0.009853
Li	      4.38062      4.01715      4.10656         0.002203      0.007671     -0.014588
Li	      6.40280      4.03118      6.11143         0.048845     -0.022935     -0.039197
Li	      8.35983      8.23875      8.43850        -0.027541      0.014125     -0.004789
Mn	      0.05446      2.09926      2.10405         0.087136     -0.118613     -0.093066
Mn	      8.39959      6.22570     10.44969         0.014708     -0.053833      0.024045
Mn	      2.10130      4.13177      6.30579        -0.003040      0.053914      0.049697
Cr	      4.20907      2.07104      6.20198         0.005697      0.009269      0.028379
Fe	      4.12002      4.10309      0.09164         0.297884     -0.024102     -0.051195
Fe	      4.19314      6.13326      6.35953        -0.061476      0.050260     -0.093870
Fe	      6.29798      6.13523      8.40717         0.056261      0.004887      0.005455
Ni	      6.27875      4.11837     10.44690         0.072555      0.005731      0.021684
Ni	      8.27306      4.11680      4.13915         0.209058     -0.202781      0.021959
O	      6.32603      4.08387      4.20223        -0.125796     -0.012241      0.011387
O	      1.88957      2.09752      2.07237        -0.170804      0.000979      0.017661
O	      4.18660      4.25387      2.02368        -0.061533      0.109633      0.035760
O	      4.20346      2.02683      4.26086         0.023038      0.115228     -0.067991
O	      6.22077      2.02206      6.43196         0.027510      0.034471      0.059752
O	      8.51358      4.17242      6.20324        -0.228573     -0.003166      0.092950
O	      2.03043      4.28009      4.35687         0.067366     -0.095739      0.079075
O	      4.10509      6.19736      4.11883         0.017697     -0.105982      0.043730
O	      4.02595      4.13911      6.24804        -0.006445     -0.078880     -0.011777
O	      6.28782      6.27921      6.29912         0.027569     -0.024819     -0.049438
O	      6.30371      4.08623      8.37106        -0.025116     -0.082259     -0.078521
O	      8.40892      6.15901      8.28522         0.041023      0.023796     -0.133454
O	      2.13630      6.05881      6.34569        -0.060876     -0.015851      0.096221
O	      4.32944      8.22374      6.27707        -0.007068     -0.028377      0.082622
O	      4.30045      6.14815      8.29363         0.030110     -0.015883      0.008311
O	      6.29855      8.11427      8.21420         0.019923      0.086963     -0.074234
O	      6.36873      6.18904     10.44981        -0.041769      0.116111      0.118752
O	      8.44014      8.12572     10.52069        -0.179697      0.210234     -0.027665
