# total energy = -223.45180469 eV
 
CRYSTAL
PRIMVEC
-0.000222 6.238300 6.263553 
6.186398 -0.000614 6.263466 
4.136045 4.170151 -0.011718 
PRIMCOORD
36 1
Li	      6.20539      0.08822      6.29357        -0.008937     -0.055298      0.014031
Li	      8.16374      2.07631      6.29757         0.011253      0.005221      0.022398
Li	      4.11849      8.32527      8.27338        -0.013222     -0.004984     -0.041956
Li	      6.15069      2.07634      8.17595         0.004373     -0.001327      0.028775
Li	      4.11555      4.21662      4.23306         0.017289      0.003004     -0.054877
Li	      4.21762      2.20801      6.22229        -0.050718     -0.055034      0.008946
Li	      6.02518      4.05140      6.34623         0.023169      0.049524     -0.028003
Li	      4.14890      6.17317      6.19873        -0.010629      0.048904      0.005306
Li	      4.16106      4.14797      8.24100        -0.017416     -0.006432      0.028049
Mn	      8.26860      4.14689      4.29654        -0.006953     -0.011513      0.032940
Mn	      2.14233      4.17492      6.25439        -0.087365     -0.036923      0.028663
Mn	      6.16778      6.25541      8.30802        -0.063936      0.058847     -0.070382
Cr	      6.16476      2.08857      4.27822        -0.032210      0.051479     -0.067915
Fe	      6.08228      4.19734      1.99594         0.137659     -0.048868      0.030145
Fe	      8.33725      4.16289      8.16827         0.087083     -0.077749      0.109605
Fe	      6.20877      6.19725      4.18155        -0.035376      0.045226      0.003288
Fe	      4.11097      8.25985      4.22867         0.005811      0.191361     -0.040002
Co	      2.10284      6.23605      4.19708        -0.005726      0.050638      0.029173
O	      2.07181      2.06116      2.18266        -0.011429      0.059756     -0.086309
O	      4.14208      4.15820      2.03142        -0.069003      0.004397      0.044702
O	      4.11968      1.95440      4.22022         0.076343     -0.058867     -0.024749
O	      6.14744      4.16201      4.06699         0.005534     -0.126389      0.050587
O	      6.18045      2.11914      6.18277        -0.003794     -0.023304      0.043284
O	      8.25686      4.14754      6.25219        -0.016615      0.001448     -0.241895
O	      2.04125      4.20520      4.03010         0.054918     -0.030054      0.018769
O	      4.08494      6.31075      4.09955        -0.038025     -0.100477     -0.005442
O	      4.01157      4.17565      6.26412         0.083690      0.001441      0.014911
O	      6.18564      6.35071      6.12260         0.021083     -0.046624      0.162081
O	      6.25551      4.31438      8.40025        -0.056261     -0.019577     -0.012106
O	      8.16622      6.20180      8.52235         0.055587      0.054276     -0.019617
O	      2.13779      6.17456      6.27150        -0.020991      0.043359     -0.127921
O	      4.30525      8.33026      6.13162         0.003220     -0.023694      0.168319
O	      4.16665      6.20559      8.58619        -0.010129     -0.015999     -0.000500
O	      6.17590      8.28779      8.45380         0.007022     -0.046482      0.026406
O	      6.32286      6.27845     10.50877        -0.000927     -0.019266     -0.014327
O	      8.25470      8.25871     10.50005        -0.034371      0.139981     -0.034375
