# total energy = -222.51047938 eV
 
CRYSTAL
PRIMVEC
0.010172 6.239084 6.346354 
6.217789 0.001672 6.354747 
4.146142 4.165996 0.000193 
PRIMCOORD
36 1
Li	      0.10785      6.19372      6.32146         0.015389     -0.026075     -0.027958
Li	      2.10109      8.23955      6.28360         0.017405     -0.025824     -0.044326
Li	      2.15315      6.19345      8.37016         0.042459     -0.030328      0.002391
Li	      4.12704      4.19425      4.27085        -0.007597      0.013968      0.047684
Li	      8.27777      6.26625      6.37706         0.007984      0.015945      0.006366
Li	      2.12272      6.22986      4.29694         0.020352     -0.024794      0.028986
Li	      4.08557      6.24502      6.43915         0.000955      0.011985      0.018591
Li	      8.25534      8.35366      8.46417        -0.008422      0.031211      0.001530
Li	      6.21870      6.25153      8.46914         0.058937     -0.065638      0.011925
Mn	      8.29880     10.38800     10.59665         0.084380     -0.102147     -0.069017
Mn	      8.30847      4.20135      8.36687        -0.041298      0.230960     -0.050364
Mn	      2.12426      4.21784      6.40092         0.040575      0.043351      0.087945
Cr	      4.18363      8.31565      8.46547         0.002740      0.071530     -0.106276
Fe	      6.29855      8.20958     10.60987        -0.048223      0.100514      0.013812
Fe	     10.33046      6.20089      8.41412         0.026610      0.129692     -0.073347
Fe	      6.18962      6.28028      4.29786         0.033444      0.010649     -0.134056
Fe	      6.10359      4.19001      6.32728         0.003754     -0.057662      0.120131
Cu	     10.29698      8.36136     10.62921        -0.069513      0.058091     -0.029303
O	      2.11869      6.07109      6.38396         0.008188     -0.040606      0.007531
O	      2.10700      2.21186      2.16919        -0.040122     -0.095424      0.014863
O	      4.03607      4.18664      2.09203        -0.007079     -0.115381      0.026983
O	      4.16029      2.12803      4.14154        -0.008653      0.053712      0.051913
O	      6.19830      4.19088      4.30103         0.019015      0.036608     -0.143411
O	      6.21554      2.13893      6.29984        -0.014031     -0.016784      0.059941
O	      8.17757      4.15611      6.20002         0.078027      0.016782     -0.003087
O	      2.01706      4.12753      4.41743         0.094790      0.103026      0.067523
O	      4.22515      6.35835      4.06439        -0.067824     -0.060602     -0.011360
O	      4.11062      4.17819      6.39154        -0.137744      0.004655     -0.029207
O	      6.21234      6.27924      6.26359         0.023298      0.064509      0.109589
O	      6.34685      4.12529      8.30505        -0.059305     -0.105438     -0.047268
O	      8.38309      6.11077      8.44103        -0.116478     -0.121574      0.003487
O	      4.32566      8.30011      6.50368         0.014861     -0.019120      0.091309
O	      4.14297      6.33987      8.66582         0.013315      0.002663     -0.008015
O	      6.18491      8.32358      8.45681         0.024355     -0.022985      0.014357
O	      6.18976      6.24990     10.60729        -0.042286     -0.066934      0.013697
O	      8.24810      8.27915     10.55764         0.037736     -0.002538     -0.023561
