# total energy = -222.21059719 eV
 
CRYSTAL
PRIMVEC
0.003586 6.283931 6.241149 
6.290486 -0.008214 6.253147 
4.196526 4.200059 -0.008475 
PRIMCOORD
36 1
Li	      6.22354      0.14220      6.19628        -0.053448      0.079368     -0.034567
Li	      6.31097      2.06534      4.25927         0.005480     -0.005834      0.016978
Li	     10.42129      6.32850      8.32066        -0.019702      0.047035     -0.044470
Li	      6.23677      6.29534      4.15080        -0.012105     -0.022793     -0.006842
Li	      4.18175      4.25814      4.16636         0.015059      0.037463     -0.012308
Li	      4.36833      2.06378      6.25373         0.130116     -0.020138      0.020076
Li	     10.44599      8.33387     10.34481        -0.015843      0.015489     -0.033596
Li	      8.45906      6.32378     10.36785         0.007423      0.068494     -0.018773
Li	      8.45040      8.30482      8.38793         0.039353     -0.013727      0.025206
Mn	      4.19010      2.08756      2.12043        -0.015575     -0.075209      0.122509
Mn	      8.41635     10.46062     10.41926        -0.001100      0.053888     -0.012009
Mn	      4.19650      6.25702      6.15807         0.125311     -0.054125      0.128106
Cr	      8.31354      2.09387      6.22228         0.051003      0.073931      0.000953
Fe	      6.19601      4.18899      2.17746         0.101369     -0.030057     -0.034065
Fe	      2.09949      4.25659      2.17072         0.056498     -0.089715      0.024934
Fe	      2.15382      4.17364      6.09076        -0.066732     -0.058261      0.016877
Fe	      6.38496      6.25473      8.40499        -0.129375      0.119738     -0.132640
Ni	      6.26139      4.13326      6.22464         0.078723      0.056322     -0.009905
O	      2.10490      2.05424      2.02399        -0.021085      0.042903     -0.035770
O	      4.22142      4.16129      2.10509        -0.123236      0.015326     -0.031219
O	      4.20032      1.95350      4.00842        -0.001420     -0.031006     -0.025388
O	      6.41086      4.19234      4.10187         0.048955     -0.018767     -0.052595
O	      6.36032      2.12063      6.25099        -0.007147     -0.191550      0.047288
O	      8.37119      4.10003      6.36478         0.114186     -0.004961     -0.035047
O	      2.09045      4.18157      4.17568        -0.006316      0.013463     -0.070302
O	      4.19129      6.31732      4.34398        -0.020761      0.000009     -0.040296
O	      4.15976      4.31977      6.20434        -0.120639      0.114002     -0.022946
O	      6.14551      6.32592      6.29087        -0.105894      0.065553     -0.010317
O	      6.37193      4.26878      8.28634        -0.039481     -0.131092      0.189223
O	      8.33125      6.23155      8.33045         0.142396      0.058552     -0.023836
O	      2.21622      6.29191      6.28565        -0.057464     -0.017325      0.026766
O	      4.18360      8.25350      6.35873        -0.010596     -0.025672      0.021775
O	      4.17321      6.25921      8.20308        -0.022134      0.017375     -0.126709
O	      6.27618      8.41061      8.16351        -0.031200     -0.042758      0.002214
O	      6.17341      6.29880     10.32181        -0.027504     -0.006426      0.147949
O	      8.40728      8.51673     10.50017        -0.007119     -0.039493      0.022746
