# total energy = -226.25592757 eV
 
CRYSTAL
PRIMVEC
0.000108 6.320657 6.239795 
6.371229 0.004184 6.235533 
4.242683 4.206082 0.007879 
PRIMCOORD
36 1
Li	      4.28598      4.20185      0.06165         0.006193     -0.020666      0.034327
Li	      6.28344      4.22989      2.05640        -0.100015      0.035805     -0.030503
Li	      4.28703      8.42156      8.28859         0.041474     -0.027986     -0.032456
Li	      8.42619      4.24832      4.14921        -0.048770      0.035292     -0.038065
Li	      6.34774      2.14999      4.15952        -0.011822      0.033013     -0.031667
Li	      0.08963      2.02663      2.03570         0.064651     -0.020787     -0.005360
Li	      6.38440      4.17218      6.17651         0.028430     -0.021174     -0.007842
Li	      6.32948      8.44451      6.31214        -0.036383      0.008566      0.012829
Li	      4.20117      6.37702      6.27714        -0.033740      0.057673      0.043204
Mn	      6.39232      6.27101      4.23237        -0.004685     -0.069744     -0.056648
Mn	     10.57741      8.43900     10.45054         0.029929     -0.046921      0.104641
Mn	      6.33624      6.33383      8.26991        -0.039701      0.096443     -0.077541
Cr	      8.42795      2.11817      6.23966        -0.085656      0.026909      0.112670
Fe	      2.23591      4.15331      2.04266        -0.024937      0.007124     -0.008002
Fe	      4.36283      4.19006      4.15120        -0.021571      0.070799      0.030556
Fe	      4.41830      2.08374      6.19484         0.007098     -0.108151      0.055835
Fe	      2.10658      6.31314      4.28826        -0.015028     -0.032374     -0.018750
Fe	      4.16147      4.30175      8.25432         0.004077     -0.011392     -0.010753
O	      2.10357      2.19983      2.03806         0.028254     -0.034983     -0.026246
O	      4.17201      4.20737      2.17435         0.017795      0.003968      0.016179
O	      4.27397      2.16758      4.24434         0.025338     -0.042160     -0.112531
O	      6.28116      4.23891      4.11325         0.083417      0.038566      0.009708
O	      6.35889      2.10531      6.27912         0.163798     -0.001072     -0.029947
O	      8.47759      4.21109      6.31231        -0.001886     -0.051927     -0.045512
O	      2.20016      4.26275      4.12255         0.064655      0.004031      0.027528
O	      4.15899      6.35725      4.15441        -0.039019      0.047958      0.023022
O	      4.28000      4.12769      6.26903        -0.016429      0.014361     -0.061678
O	      6.45852      6.29721      6.28858         0.042927      0.006603     -0.059497
O	      6.34174      4.33230      8.43688        -0.007202      0.046335      0.096612
O	      8.36326      6.30985      8.30449        -0.056599      0.027400      0.054738
O	      2.08811      6.41415      6.20550         0.017044      0.055896      0.036784
O	      4.09263      8.44059      6.11122        -0.065675     -0.008503     -0.092171
O	      4.41019      6.24328      8.30356         0.046146      0.064447      0.011537
O	      6.44048      8.27033      8.29290        -0.015294     -0.106718      0.026537
O	      6.46610      6.21368     10.32451        -0.014365     -0.083729      0.013140
O	      8.42354      8.34515     10.37874        -0.032451      0.007098      0.035323
