# total energy = -213.83065186 eV
 
CRYSTAL
PRIMVEC
-0.011236 6.121577 6.260604 
6.193767 -0.020215 6.269381 
4.122947 4.080527 -0.007104 
PRIMCOORD
36 1
Li	     10.26019      4.04123      6.24900        -0.065158      0.026465      0.011005
Li	      8.25400      2.12216      6.20676        -0.008427      0.057987      0.044289
Li	      8.24244      4.06460      4.17894         0.017111      0.012208      0.041154
Li	      4.14721      4.07549      4.30721         0.008157      0.010885      0.022187
Li	      8.20408      6.12850      6.26137         0.015409     -0.069626      0.005734
Li	      6.20554      4.08150      6.28979         0.102972      0.013600      0.006245
Li	      4.14114      6.03225      6.35192         0.026820      0.005098      0.021273
Li	      4.08889      4.18411      8.24212         0.026173     -0.023440      0.013383
Li	      6.12842      6.08567      8.31220         0.022295     -0.034801      0.046958
Mn	      6.16109      2.06192      4.27919         0.047107     -0.049497      0.112985
Mn	      6.16097      2.02054      8.21513        -0.046054      0.043668     -0.052884
Mn	      6.21399      6.08567      4.22911         0.001004      0.051052      0.017346
Mn	      2.05376      6.09180      4.18591         0.010893     -0.004407     -0.145646
Cr	      4.16707      8.12776      8.31286        -0.118879      0.116000      0.059898
Co	      8.23655      4.07480      8.28422        -0.014585     -0.027920     -0.104207
Cu	      2.10524      4.04949      6.27297        -0.100961     -0.063669      0.019981
Ni	      2.11280      6.09645      8.32947        -0.089049      0.069623     -0.056006
Ni	     10.26418      8.17326     10.46320        -0.049682      0.023718     -0.028592
O	      3.93889      4.03941      6.28583         0.184024     -0.003965     -0.016596
O	      2.11840      2.07580      2.18633         0.053985     -0.019224      0.061394
O	      4.05627      4.16167      2.04393         0.058549     -0.112143     -0.020370
O	      4.14639      2.03132      4.09814         0.074897      0.026038     -0.048027
O	      6.18400      4.06520      4.17689        -0.005906     -0.053594      0.027993
O	      6.18717      2.04156      6.22343        -0.004745     -0.016352     -0.027470
O	      8.24686      4.06334      6.43862         0.002481      0.054466     -0.102370
O	      2.00059      4.12079      3.95208         0.064485      0.030991      0.009021
O	      4.05888      6.15296      4.04001        -0.043606     -0.111485     -0.014498
O	      6.18024      6.22728      6.10743        -0.022595     -0.054746     -0.045179
O	      6.28590      3.94210      8.34154        -0.030180      0.007976     -0.043355
O	      8.23187      5.99630      8.47875        -0.017826      0.114131      0.117403
O	      2.10999      5.95640      6.15072        -0.007756      0.054853     -0.017359
O	      4.30894      8.15565      6.29850        -0.091855     -0.017567      0.024178
O	      4.10641      6.19678      8.35693         0.109344     -0.040280      0.033131
O	      6.12176      8.18617      8.58517         0.037708     -0.083007     -0.018581
O	      6.31161      6.13723     10.45920         0.036534      0.140556      0.035008
O	      8.21709      8.00511     10.49158        -0.182682     -0.073591      0.010572
