# total energy = -212.70028058 eV
 
CRYSTAL
PRIMVEC
-0.030816 6.048113 6.275139 
6.386373 -0.022189 6.266187 
4.263180 4.031216 -0.020069 
PRIMCOORD
36 1
Li	      6.38859      8.02445     10.46859         0.059568      0.085665      0.020000
Li	      8.39504      4.07907      8.35142        -0.089134     -0.146327     -0.017676
Li	      4.27014      4.05271      4.30763        -0.017873     -0.056994      0.130285
Li	      4.22193      2.09151      6.25623         0.044753      0.036055     -0.129526
Li	      6.29452      4.00284      6.25603        -0.264774      0.061728      0.088185
Li	      6.37536      4.02391     10.42617        -0.048946     -0.072099     -0.016172
Li	      2.31131      4.01416      6.26966         0.184864      0.023655     -0.029854
Li	      4.28765      5.93789      6.20015         0.112595     -0.030368      0.018844
Li	      4.26525      3.97742      8.16286         0.127699      0.086963     -0.075849
Mn	      6.36729     10.02479      8.34208         0.097054      0.287158      0.185399
Mn	      4.23440      2.05800      2.11620        -0.212889     -0.045164     -0.103412
Mn	      6.37292      6.12878      4.29485         0.100329     -0.083847     -0.116482
Mn	      6.44213      5.98990      8.28833        -0.164985     -0.055799     -0.175212
Cr	     10.60233      6.07920      8.36742         0.578604     -0.043976     -0.203156
Co	      8.47701      1.98564      6.24222        -0.081648     -0.166046      1.227841
Cu	      6.29110      6.02130     12.44933        -0.022962     -0.084218      0.336435
Cu	      2.11863      5.97275      4.19853         0.055212      0.218619      0.114358
Ni	      8.49011     10.01954     10.42884        -0.128596     -0.033668     -0.147814
O	      4.29295      4.00861      6.24379        -0.024972     -0.024219      0.011975
O	      8.48833      7.93126     10.71562        -0.018156     -0.333694     -1.116441
O	      2.01774      1.94111      1.94780        -0.122136     -0.121365      0.383547
O	      4.46575      4.01773      2.18736        -0.002443      0.069528     -0.071999
O	      4.09672      2.00520      4.05382         0.007329     -0.041292      0.038322
O	      6.46504      4.12440      4.00253         0.003431     -0.027752      0.036191
O	      6.55285      1.94369      6.32876        -0.671757     -0.599214     -0.155024
O	      8.59077      3.88408      6.17623         0.571200      0.348402      0.088186
O	      2.13436      4.00899      4.23699        -0.070859      0.510260     -0.139877
O	      4.45322      6.09535      4.08232        -0.185534     -0.052016      0.061067
O	      6.41405      6.04850      6.35514         0.010605     -0.072875     -0.131416
O	      6.33774      4.01167      8.29552         0.278540      0.242629      0.106312
O	      8.61910      6.01500      8.44793        -0.237160      0.015745      0.321477
O	      1.98059      6.09921      6.36731        -0.418525     -0.206754     -0.390084
O	      3.96422      8.11606      6.43141         0.521274      0.470454     -0.302781
O	      4.06537      6.13443      8.34753        -0.076882      0.012345     -0.087851
O	      6.36306      8.11953      8.34382        -0.022083     -0.111818      0.033093
O	      6.24004      6.02796     10.20970         0.129257     -0.059703      0.209107
