# total energy = -212.82594312 eV
 
CRYSTAL
PRIMVEC
0.019364 6.120164 6.151979 
6.196047 0.010557 6.161031 
4.153320 4.108976 -0.015781 
PRIMCOORD
36 1
Li	      4.05555      4.05110      0.06168         0.000921     -0.037422      0.047206
Li	      8.33804      2.14550      6.15938        -0.013812     -0.018215      0.095761
Li	      4.16841      8.20430      8.08694        -0.026022      0.055816     -0.022841
Li	      8.27215      4.10152      8.14349         0.034084     -0.058403     -0.075811
Li	      4.06128      4.07368      4.20241        -0.000993     -0.059619     -0.035172
Li	      4.13999      2.07151      6.18479         0.001310      0.007564     -0.018625
Li	      6.15678      4.12457      6.22980        -0.018719     -0.026233      0.015586
Li	      2.10852      4.03255      6.13145         0.026281      0.007692      0.034054
Li	      4.16897      4.08027      8.07706        -0.004549     -0.002830     -0.000583
Mn	      2.09665      6.10093      8.14639        -0.150024      0.197436     -0.000478
Mn	      8.27810      4.11787      4.16803        -0.145058      0.116243     -0.027048
Mn	      6.19161      2.09101      8.11536         0.357428     -0.222580      0.021937
Mn	      2.11586      6.05364      4.15823         0.128602     -0.012148     -0.077821
Cr	      6.15230      2.10386      4.18136        -0.123810      0.173800      0.051702
Co	      2.07926      2.07232      4.13595         0.315512      0.383551      0.335350
Ni	      4.18670      8.18433      4.12419        -0.186129      0.081444     -0.001310
Ni	      4.18404      6.12379      6.16561        -0.126267      0.020751      0.015556
Ni	      6.25382      6.12495      8.08715         0.006590      0.034686      0.017211
O	      4.16144      4.25599      6.12334        -0.027992     -0.246393      0.038379
O	      1.98677      1.95835      2.15531        -0.166059     -0.203094     -0.801190
O	      4.32517      4.23097      2.00949        -0.120804     -0.012832     -0.015486
O	      4.09337      1.95658      4.12573         0.582470     -0.148828      0.022359
O	      6.32221      4.13270      4.01369         0.090775     -0.533476      0.022979
O	      6.21141      2.06843      6.23289        -0.035174      0.024404     -0.076552
O	      8.29380      4.11971      5.98073        -0.043856      0.034889      0.047397
O	      2.06887      3.97778      4.05557         0.151961      0.902345      0.033980
O	      4.27480      6.14658      3.95537        -0.793485     -0.158382     -0.071818
O	      6.09682      6.14761      6.06102         0.093599     -0.095103      0.733866
O	      6.22628      4.02058      8.25860        -0.006761      0.071311     -0.185408
O	      8.40361      6.12794      8.25287        -0.153414      0.011542      0.067792
O	      2.20490      6.10630      6.22755        -0.003030     -0.059184     -0.320552
O	      4.14862      8.03841      6.10796         0.079917      0.168533      0.072581
O	      4.06767      6.14292      8.29468         0.086379     -0.041689      0.131066
O	      6.18320      8.28459      8.34344         0.051873     -0.193716     -0.103696
O	      6.12333      6.20067     10.18309         0.076017     -0.022174      0.045235
O	      8.18751      8.25709     10.28122         0.062236     -0.139686     -0.015607
