# total energy = -217.16225175 eV
 
CRYSTAL
PRIMVEC
0.002911 6.221408 6.171929 
6.341846 0.009535 6.165391 
4.221235 4.136187 0.013551 
PRIMCOORD
36 1
Li	      2.08932      2.12036      0.15336        -0.012182     -0.011885      0.011577
Li	      2.04820      0.11030      2.06822        -0.018729     -0.004725     -0.016780
Li	      4.28165      6.19029      2.10961         0.042353      0.019959     -0.017795
Li	      2.12232      4.07426      2.07205        -0.055122      0.015765     -0.034494
Li	      2.03512      2.10889      4.00989        -0.056970      0.033072      0.023775
Li	      4.19550      4.17709      3.98597         0.029519     -0.047078      0.045116
Li	      8.49197      6.14585      6.21646         0.016584     -0.002011      0.015542
Li	      0.08088      4.10044      4.05706         0.036972      0.000145     -0.028931
Li	      6.37001      6.18024      8.22255         0.024235     -0.008451     -0.044964
Mn	      6.31241      2.07999      4.10328        -0.067840      0.079959     -0.003264
Mn	      6.37433      4.16986      6.17919        -0.096859     -0.049368      0.007149
Mn	      2.15877      6.18710      4.12187         0.185018      0.047620     -0.069090
Mn	      6.33510      8.23574      6.17947         0.000660      0.051802     -0.057733
Cr	      4.28353      4.16518      8.23403         0.028465     -0.149317     -0.181734
Co	      4.22880      0.01835      4.11070         0.026464     -0.164175     -0.250060
Co	      4.22919      6.23129      6.16750         0.044136     -0.050539      0.140509
Cu	     10.48722      4.17970      6.25031        -0.099879     -0.004793      0.053371
Cu	      4.07790      2.10075      2.06262        -0.026112      0.030095      0.017482
O	      8.30483      4.18175      6.06810        -0.173103      0.035060      0.680585
O	      4.24673      8.16785      6.26962         0.013034      0.039813     -0.089688
O	      2.14146      2.06714      2.10581        -0.149034     -0.025482      0.008960
O	      4.20742      4.05740      1.97410         0.037637      0.079588      0.024204
O	      4.40458      2.01896      4.02689         0.200646      0.418970     -0.011073
O	      6.34629      3.99993      4.19650        -0.189554     -0.148836      0.008196
O	      6.30572      2.09478      6.04618        -0.000115     -0.020341     -0.077362
O	      2.09210      4.28081      4.18338         0.033424      0.147224     -0.002368
O	      4.08620      6.24472      4.24390        -0.256049     -0.010135     -0.039712
O	      4.30168      4.26020      6.22614        -0.003509     -0.060356      0.040306
O	      6.20241      6.28094      6.10208         0.001368      0.148538     -0.001646
O	      6.27787      4.16205      8.09500        -0.079731     -0.014544      0.105217
O	      8.46893      6.29804      8.39301         0.077049      0.079389      0.146883
O	      2.29039      6.11958      6.09155         0.065871     -0.127834      0.006823
O	      4.27240      6.19246      8.21491         0.042836     -0.044794     -0.459632
O	      6.46319      8.27922      8.26042         0.056943      0.013405      0.122330
O	      6.43708      6.33041     10.40304         0.279705     -0.000181     -0.058377
O	      8.33329      8.24506     10.25757         0.041870     -0.295556     -0.013322
