# total energy = -210.82352906 eV
 
CRYSTAL
PRIMVEC
0.024134 6.305252 6.082716 
6.236583 0.017230 6.089338 
4.171880 4.221997 -0.002614 
PRIMCOORD
36 1
Li	      8.25069      2.21945      5.98743        -0.006581      0.022900     -0.087716
Li	      8.31762      4.24476      4.09344         0.029264      0.015036     -0.003323
Li	      6.23415      2.11478      4.07843        -0.009864     -0.003850      0.009053
Li	      2.15924      2.09751      4.04513         0.031746     -0.026148      0.041905
Li	      4.21289      4.14356      4.05158         0.022358     -0.029706      0.050909
Li	      6.34045      4.18241      5.93896         0.027755     -0.037377     -0.006788
Li	      6.21700      4.29389     10.11960        -0.057204      0.000397      0.035534
Li	      8.27866      6.35386     10.13633         0.016550      0.052007      0.001065
Li	      6.26999      6.31220      8.22954         0.035871     -0.016887      0.058839
Mn	      6.19671      0.03955      6.04181         0.011972     -0.030586     -0.296276
Mn	      2.09707      4.19891      6.01293         0.000249     -0.093038     -0.196106
Mn	      4.22788      6.31427      5.97640         0.029434     -0.034984     -0.279725
Mn	      8.35797      8.41361      8.16619         0.106307     -0.110075      0.218825
Cr	      4.21406      6.32976      2.08422        -0.101215      0.067855      0.079244
Cu	      6.25958      4.26267      2.14967         0.089419      0.024104     -0.055487
Ni	      4.14028      2.11071      2.11991         0.064221     -0.047236      0.053738
Ni	      2.04166      4.21434      2.11444        -0.139602      0.139434      0.109972
Ni	      4.15361      2.07531      5.99733        -0.052136      0.069464     -0.087227
O	      6.25538      4.23540      4.01758         0.011997      0.006492      0.035412
O	      2.04687      2.15490      2.01545        -0.051187     -0.299685     -0.022003
O	      4.09934      4.26564      1.97017         0.305952      0.037068      0.002530
O	      4.20173      2.10377      4.03141        -0.022585     -0.016783     -0.000779
O	      6.24136      1.95629      6.17447         0.112427     -0.014671      0.019418
O	      8.45268      4.25866      6.16414         0.046381     -0.175826      0.006191
O	      2.06957      4.24844      4.15879        -0.015212      0.004830      0.087417
O	      4.13102      6.31774      4.10129        -0.053504      0.057050      0.100472
O	      4.03487      4.18298      6.13810        -0.049746      0.095564      0.074800
O	      6.20872      6.50752      6.05569        -0.055035      0.095482      0.041946
O	      6.16491      4.12376      8.05055        -0.048213      0.040365     -0.003780
O	      8.40633      6.43227      8.08130        -0.012909      0.029165      0.106271
O	      2.06433      6.19011      6.18167        -0.057419     -0.043516     -0.018568
O	      4.31301      8.51742      6.16930         0.011085      0.057905     -0.056195
O	      4.23243      6.19399      7.93425        -0.260587      0.007623      0.081560
O	      6.37577      8.40015      8.00754         0.002042      0.171118     -0.058601
O	      6.26274      6.31692     10.31912         0.014047      0.005156      0.097798
O	      8.33440      8.46358      9.97825         0.023923     -0.018649     -0.140327
