# total energy = -211.82620501 eV
 
CRYSTAL
PRIMVEC
-0.032807 6.297806 6.349857 
6.065144 -0.005297 6.322910 
4.034773 4.172051 0.004938 
PRIMCOORD
36 1
Li	      8.06261      4.17423      4.28382        -0.014052     -0.033912      0.007953
Li	      6.01750      2.10276      4.32763        -0.013147     -0.002016      0.013515
Li	      0.04613      2.05994      2.12689        -0.050587      0.030764     -0.032899
Li	      2.03396      4.14184      2.06194        -0.069095      0.115765     -0.103955
Li	      4.04813      4.18278      4.21962         0.010165      0.002055      0.034789
Li	      4.06504      2.09163      6.25028        -0.020709      0.026177     -0.017300
Li	      6.07793      4.10014      6.29244         0.003153     -0.034113      0.025320
Li	     10.05987      8.34125     10.55505        -0.019165      0.039475     -0.059016
Li	      4.02940      6.25310      6.26412         0.010742     -0.099732      0.009788
Mn	      6.04684      0.02762      6.28861        -0.225249      0.153026     -0.009842
Mn	      2.01850      4.15177      6.29217         0.103167      0.009965      0.063053
Mn	      8.06397      8.34490      8.47833         0.238297      0.170644     -0.085122
Mn	      6.01944      6.23308      8.51689        -0.145002     -0.166125     -0.065851
Cr	      6.01150      6.21502      4.21794         0.037083     -0.174413      0.166317
Cu	      8.05339      8.41560     12.63928         0.014022     -0.030668     -0.061187
Cu	      6.04267      4.23308      2.16942         0.184652      0.055895      0.147847
Ni	      3.99333      2.14396      2.17493         0.155599     -0.084293      0.009691
Ni	      2.07522      6.29142      4.21913        -0.011372     -0.047883      0.014073
O	      6.01862      4.31641      4.20497         0.013605      0.412294     -0.014166
O	      6.14802      1.94659      6.31522         0.014618     -0.155967     -0.011009
O	      2.02022      2.19419      2.26697        -0.170127      0.001157      0.172997
O	      4.11535      4.15832      1.95327        -0.116575      0.091893     -0.057687
O	      3.88892      2.12770      4.17697        -0.094239      0.028302      0.165499
O	      8.19759      4.11511      6.32787         0.113058      0.084786      0.016978
O	      2.02720      4.16771      4.41833        -0.023314     -0.159520     -0.016716
O	      4.12072      6.30597      4.22964         0.172882     -0.000465      0.002960
O	      3.89785      4.19778      6.48964         0.006463     -0.027393     -0.037952
O	      6.02085      6.43352      6.26083        -0.026834     -0.076010     -0.076212
O	      5.92882      4.32183      8.37845        -0.048437     -0.138199      0.045455
O	      7.97288      6.38090      8.48386         0.120061      0.005777     -0.096411
O	      1.93910      6.20436      6.36710         0.037431     -0.029357     -0.071466
O	      4.02736      8.49476      6.41955         0.003686      0.033865     -0.135843
O	      4.02253      6.16758      8.46509        -0.081477     -0.094455     -0.019187
O	      6.05168      8.20167      8.32078         0.020488      0.063436     -0.006887
O	      6.08026      6.28526     10.69605        -0.069916     -0.038119      0.053592
O	      8.04759      8.32874     10.34837        -0.059878      0.067365      0.028881
