# total energy = -138.86219781 eV
 
CRYSTAL
PRIMVEC
2.063951 2.067548 0.000743 
-8.364129 8.381361 8.336702 
2.103987 -2.105976 4.192568 
PRIMCOORD
24 1
Li	     -3.11094      5.18615      9.37108         0.013473     -0.015955     -0.005813
Li	     -3.08910      7.23270     11.31545         0.012323     -0.013022     -0.027823
Li	     -1.22488      3.29739      5.40038        -0.005306      0.007972     -0.014626
Li	     -0.95584      5.09123      7.25786        -0.033555      0.032213      0.005696
Li	      1.14593      0.91371      1.01035        -0.010727      0.001550     -0.005965
Li	     -1.15567      1.16211      3.16498         0.011457     -0.009497      0.005228
Mn	      1.02926      1.04713      5.22195         0.012310     -0.009504     -0.008960
Mn	     -3.15991      7.30160      7.32554         0.017037     -0.019043     -0.039070
Mn	      3.13991      0.98690      3.12174         0.000875     -0.003553     -0.008007
Ni	     -3.14172      5.21552      5.20058        -0.030955      0.032320      0.052558
Ni	     -5.21996      7.29506      9.39903        -0.022843      0.018852      0.005087
Ni	     -1.07402      1.07989      7.35182         0.042607     -0.040893     -0.043900
O	     -5.31817      7.37156     11.52451        -0.002314      0.023910      0.082071
O	      0.95176     -0.94373      5.12005        -0.029475      0.035452      0.011079
O	     -3.28659      5.36394      7.34100        -0.021880      0.023252      0.072687
O	     -3.19357      7.33511      9.28280         0.121532     -0.123480     -0.035202
O	     -1.06661      3.13950      2.89301         0.085983     -0.081230     -0.077622
O	     -3.17772      3.18508      5.19100         0.153697     -0.153530      0.120176
O	     -5.14633      7.22212      7.32691         0.012845     -0.012943     -0.100572
O	     -5.23734      9.37974      9.57781        -0.105774      0.097745      0.069669
O	     -1.02337      3.09408      7.34034        -0.120682      0.120815     -0.106848
O	     -3.13038      7.27110      5.41542        -0.105499      0.106578      0.069931
O	      1.14459      0.94287      3.21871        -0.024219      0.009241      0.042262
O	     -0.89555      0.90522      5.16317         0.029089     -0.027249     -0.062036
