# total energy = -211.11852419 eV
 
CRYSTAL
PRIMVEC
-0.001949 6.177992 6.570814 
6.173868 0.057412 6.511709 
4.127674 4.090720 0.026242 
PRIMCOORD
36 1
Li	      2.08318      6.18799      8.69666        -0.030872     -0.010105     -0.001766
Li	     10.24360      6.31656      8.78515         0.050800     -0.058861      0.019406
Li	      4.04661      4.21046      4.73450        -0.000108     -0.020858      0.090792
Li	      8.18028      6.35586      6.72240        -0.067058      0.018427     -0.018059
Li	      6.00492      4.21665      6.66991         0.009020      0.037487     -0.039751
Li	      6.20342      4.11793     10.63482        -0.002295      0.003062      0.013025
Li	      2.22310      4.08877      6.51488         0.033713     -0.071570     -0.014165
Li	      4.17327      6.02236      6.51272         0.040922     -0.007642     -0.059662
Li	      4.20283      4.10393      8.50920        -0.033686      0.042774     -0.005000
Mn	      4.14100     10.25204      6.59931         0.030285     -0.169591     -0.028203
Mn	      4.10293      2.07711      2.20123         0.036824      0.043166     -0.046762
Mn	      8.24022     10.24998     10.90634        -0.031625      0.102261      0.153862
Mn	      6.07335      6.25919      4.48708         0.053342     -0.019775      0.218165
Cr	      6.17318      2.11329      4.35644        -0.101478      0.076023      0.046103
Cu	      2.04484      8.18315      6.60848         0.097736      0.059755      0.031958
Cu	      8.20229      4.20398      8.72076         0.139966     -0.044487      0.008020
Cu	      6.21386      6.19078      8.62686        -0.080745      0.075299     -0.064444
Ni	      2.13557      6.09916      4.37680         0.041264      0.078910      0.100253
O	      6.27171      4.26090      8.65071         0.026414      0.013785      0.013375
O	      8.18533      6.16115      8.89132         0.027767     -0.037048     -0.191786
O	      1.93173      6.21764      6.46583        -0.080449     -0.054854      0.150227
O	      2.17426      2.11337      2.38593        -0.027840      0.030241      0.090652
O	      4.07640      4.02694      1.96818        -0.061420      0.001423      0.035899
O	      4.12603      1.98806      4.20735         0.017671      0.038680     -0.021115
O	      6.34080      4.11448      4.33512        -0.055391      0.069780     -0.071435
O	      6.22155      1.96017      6.40696        -0.087230      0.039005     -0.259617
O	      8.35750      4.05907      6.28882         0.017313     -0.034074      0.118643
O	      2.06196      4.04667      4.47148        -0.114027     -0.193172     -0.066671
O	      4.20484      6.17241      4.33926         0.088533      0.014777     -0.029391
O	      4.11861      4.12934      6.61274         0.019546      0.009267      0.072195
O	      6.18076      6.16999      6.30703         0.009974     -0.005551      0.033097
O	      4.04825      8.29359      6.84206        -0.010645     -0.042048      0.116283
O	      4.17245      6.32322      8.91339         0.014315      0.067405     -0.267281
O	      6.02371      8.20674      8.89514        -0.025240      0.039573      0.039749
O	      6.11470      6.25068     11.11004         0.023447     -0.033878     -0.030710
O	      8.15552      8.34997     10.78675         0.031258     -0.057587     -0.135886
