# total energy = -212.73515575 eV
 
CRYSTAL
PRIMVEC
0.064637 6.159397 6.510995 
6.141635 0.037459 6.537387 
4.081412 4.111068 0.038283 
PRIMCOORD
36 1
Li	      2.12246      8.16523      6.55223        -0.036941     -0.001825      0.020111
Li	      2.11681      6.19200      8.66393        -0.043325     -0.006394     -0.057170
Li	      8.09125      4.13604      4.38460         0.056762      0.002477      0.016907
Li	      0.10760      2.05647      2.25924        -0.021265     -0.034019     -0.039598
Li	      6.14008      6.17925      4.42416         0.114914     -0.018680      0.020963
Li	      6.15089      4.19023      6.44533         0.005574     -0.010533     -0.035070
Li	      2.14202      6.16481      4.49109        -0.074732      0.056803      0.052708
Li	      2.08060      4.11941      6.46459         0.000598      0.009324      0.017166
Li	      6.13465      6.16346      8.62938        -0.002945      0.027782     -0.040034
Mn	      0.11740      6.14093      6.44349        -0.002298      0.054680      0.034752
Mn	      6.11827      2.10813      4.40193         0.149885     -0.239990      0.018903
Mn	      2.06539      4.08620      2.18903         0.010166      0.061403     -0.327584
Mn	      8.12587      6.20626      6.60909         0.088470      0.062332     -0.062138
Cr	      8.19931      8.23859      8.76900        -0.008127     -0.038533      0.008826
Cu	      4.15236      8.14571      8.65888         0.087007     -0.075306     -0.006372
Cu	      4.14640      4.18933      4.37972        -0.091360     -0.005625     -0.068675
Cu	      4.13434      6.16697      6.51912        -0.004472     -0.054866      0.286588
Cu	      0.06860      4.08937      4.34432        -0.076810      0.065179     -0.031941
O	      1.97633      6.15562      6.53051         0.072625     -0.020107     -0.041669
O	      4.13870      8.35520      6.31315         0.003621     -0.032987     -0.014467
O	      4.12064      6.15329      8.50156        -0.000698     -0.038193      0.010958
O	      2.13141      2.19519      2.15984        -0.146242      0.061938      0.020364
O	      4.00569      4.02335      1.94836        -0.054365      0.089128     -0.008844
O	      4.16197      2.13452      4.60409        -0.154874      0.101186      0.034921
O	      6.08177      4.01106      4.39894        -0.113924      0.212559      0.023127
O	      6.08285      2.00139      6.40393         0.045184      0.020929     -0.025779
O	      8.22540      4.23212      6.70668        -0.083060     -0.062083      0.106353
O	      2.23208      4.17906      4.05934         0.204096      0.048695      0.291859
O	      4.15196      6.14590      4.58757        -0.003818     -0.178465     -0.233866
O	      4.12638      3.99239      6.75643         0.007811     -0.044856      0.046199
O	      6.27088      6.19878      6.56210        -0.067912     -0.004297     -0.006612
O	      6.22885      4.10843      8.91811         0.084347     -0.041398     -0.082882
O	      8.23791      6.14746      8.55102         0.028789     -0.043833      0.127084
O	      6.15167      8.18668      8.97922         0.066160      0.005933      0.014118
O	      6.15889      6.29484     11.06528        -0.032203      0.084370     -0.050492
O	      8.07967      8.28045     10.76444        -0.006639     -0.012730     -0.018716
