# total energy = -210.59394259 eV
 
CRYSTAL
PRIMVEC
0.015935 6.315345 6.161817 
6.155016 0.005217 6.172575 
4.125656 4.239463 -0.018934 
PRIMCOORD
36 1
Li	     10.27339     10.52733     12.28620        -0.023770     -0.034188      0.069599
Li	      8.28490      8.48261     12.27403         0.098971      0.023255      0.073645
Li	      4.11782      8.39432      8.08607        -0.060131      0.006956     -0.036929
Li	      6.15149      2.17979      8.19983         0.067631      0.050250      0.057990
Li	      6.18064      4.15715      6.33988         0.013508      0.022190      0.100183
Li	     10.21213      8.48729     10.23795         0.019939     -0.043986     -0.029130
Li	      4.12960      6.42682      6.22983         0.033400      0.049315      0.015830
Li	      4.23777      4.26440      8.26736         0.100027      0.012480     -0.026476
Li	      6.14266      6.19424      8.25920        -0.020689     -0.119310     -0.108522
Mn	      2.08253      6.31241      8.17571        -0.129557      0.222616     -0.046674
Mn	      6.12296      6.35583      4.08199        -0.081399     -0.023069     -0.025545
Mn	      8.26495      6.34085      6.21558        -0.575576     -0.156927      0.053276
Mn	      6.12111      8.48628      6.17897        -0.179447     -0.071224     -0.051308
Cr	      4.13001      4.22307      4.10724         0.014292      0.002633     -0.119578
Ni	      8.23233      6.42438     10.21242         0.266391     -0.142864      0.017943
Ni	      8.32691     10.45348     10.24719        -0.136899      0.091816      0.016902
Ni	      6.22855      8.38357     10.26346         0.026454     -0.420096      0.406556
Ni	      8.19955      4.23897      8.15697         0.019651     -0.192016      0.046347
O	      6.25836      4.21596      8.25894        -0.193182     -0.070773      0.001297
O	      2.05205      1.99548      2.15257        -0.009176     -0.172251     -0.099146
O	      4.17453      4.20389      2.12850         0.156086      0.003449      0.006769
O	      4.01536      2.15278      4.22815         0.140466      0.047051     -0.024423
O	      6.13937      4.13568      3.95808        -0.034877      0.104672     -0.057221
O	      5.99377      2.15850      6.10378         0.341510      0.038561     -0.067767
O	      8.20220      4.41725      6.12244         0.024584      0.127470     -0.064678
O	      2.14011      4.30917      4.18069         0.000421      0.137297      0.181001
O	      4.20849      6.18574      4.16297        -0.094830      0.076494     -0.037790
O	      4.02362      4.07065      6.12508         0.008185      0.022384      0.035700
O	      6.24086      6.50366      6.06478         0.072657      0.067492      0.126734
O	      8.23658      6.28490      8.08906         0.081017      0.210009      0.076450
O	      2.07741      6.18693      6.25882         0.002449      0.047622     -0.094591
O	      4.28837      8.44520      6.10971         0.161760      0.070088     -0.015483
O	      3.96411      6.32623      8.26526         0.015183      0.021180     -0.187888
O	      6.17752      8.60385      8.10025        -0.039802     -0.037283     -0.164149
O	      6.20370      6.45017     10.21232        -0.000779      0.077344     -0.101314
O	      8.20458      8.42250     10.31174        -0.084470     -0.048637      0.072387
