# total energy = -199.23446536 eV
 
CRYSTAL
PRIMVEC
-0.012972 6.219015 6.156558 
6.097341 -0.018010 6.161582 
4.062114 4.146660 -0.009248 
PRIMCOORD
36 1
Li	      6.13218      0.07715      6.17355         0.153495     -0.032783      0.071925
Li	      1.97115      8.20240      6.13153         0.078738     -0.136863      0.108315
Li	      6.04661     10.30194      8.21625        -0.020828      0.020273     -0.145194
Li	      0.00548      2.03055      2.00507        -0.006142     -0.053510     -0.020065
Li	      6.04489      6.13223      4.16263        -0.105378     -0.073167      0.081258
Li	      4.10801      4.20136      4.09229        -0.036114      0.122210      0.041114
Li	      6.05352      4.14539      6.12125        -0.111042      0.136018     -0.014887
Li	      6.07940      8.29078      6.15075         0.038723      0.031260      0.005315
Li	      6.08666      6.25388      8.18066         0.033326     -0.036660     -0.159024
V	      2.01826      4.02829      1.98983         0.336742     -0.007010     -0.197212
Fe	      4.02905      6.18047     10.19601         0.243418      0.068967      0.084631
Fe	      3.99150      2.17182      6.16870        -0.667668      0.300773      0.102067
Co	      2.05151      6.23855      4.10307         0.231607     -0.224888      0.341748
Co	      4.06610      6.19616      6.14943         0.082714     -0.167720     -0.166679
Ni	      6.07513      2.06981      4.13164         0.002840      0.047860      0.146877
Ni	      4.10219      8.29379      8.18434        -0.211974     -0.038191     -0.214676
Ni	      0.04260      4.14748      4.15441         0.171720     -0.166226      0.213615
Ni	      4.07026      4.13105      8.20239         0.058508      0.041193     -0.347532
O	      2.02750      2.23767      2.05855        -0.017044      0.103752     -0.007928
O	      3.89979      4.12855      2.01657        -0.082895      0.022186      0.079493
O	      4.01744      1.95876      4.14065         0.200376      0.105735     -0.250938
O	      6.19423      4.01890      4.08634        -0.324097      0.277433      0.014987
O	      5.96521      2.08573      6.03199         0.339247     -0.079320      0.440428
O	      8.09249      4.22684      6.27129         0.064768     -0.157788      0.001147
O	      2.03126      4.33282      3.92857        -0.030817      0.080927      0.006675
O	      3.97051      6.24701      4.23125        -0.136962      0.004231     -0.025076
O	      4.04383      4.20434      6.18890         0.028701     -0.157070      0.034754
O	      6.03544      6.23618      6.13652         0.390547     -0.019673      0.009292
O	      6.24478      4.11817      8.24978        -0.138748      0.052416      0.205817
O	      8.15472      6.18040      8.22271        -0.019372     -0.097016      0.206420
O	      2.17192      6.18068      6.01893        -0.391472      0.127594     -0.189539
O	      4.07752      8.06610      6.17411        -0.076550      0.278064     -0.074738
O	      4.06162      6.20546      8.16951        -0.035952     -0.063640      0.155543
O	      6.08839      8.28761      8.39872         0.043837     -0.081313     -0.493657
O	      6.12543      6.24490     10.31793        -0.015815     -0.165813     -0.055653
O	      8.15925      8.23977     10.25121        -0.070436     -0.062241      0.011381
