# total energy = -202.54610184 eV
 
CRYSTAL
PRIMVEC
0.023889 6.300992 6.064188 
6.210688 0.028447 6.059094 
4.165657 4.222510 -0.006385 
PRIMCOORD
36 1
Li	      2.10536      2.10637      0.07084         0.001449      0.050781      0.016599
Li	      2.11728      6.39714      7.99757         0.077312      0.048779      0.046938
Li	      6.25410      2.13815      8.05086         0.005126      0.018882     -0.014600
Li	      6.25286      6.30693      4.03675         0.057486     -0.071313      0.117156
Li	      4.11765      2.19872      6.07992        -0.067836     -0.055647     -0.033752
Li	      6.09989      4.29643      6.08330         0.021480      0.093470     -0.003024
Li	      2.18168      4.24090      6.10315        -0.065908     -0.087448      0.076003
Li	      4.17508      6.16344      6.07694         0.085829     -0.011259      0.085042
Li	      4.16866      4.19342      7.90931         0.002679     -0.023561      0.072729
V	      6.28255      2.23083      4.05404        -0.020296     -0.061513     -0.175736
Fe	      4.17465      8.29461      4.08616        -0.268136      0.389571     -0.073226
Fe	      6.23934      6.29611      7.95463        -0.116684      0.020423      0.287769
Co	      4.11962      2.14296      2.03207         0.013257     -0.147685      0.048547
Co	      4.14230      0.05218      4.02953        -0.004758      0.061206     -0.023786
Co	      2.08354      4.16296      2.02192        -0.038084     -0.056086     -0.169658
Cu	      0.04901      6.30332      6.08633        -0.007467      0.126629      0.006493
Cu	      4.11520      4.28019      4.15182        -0.022752      0.037381     -0.043768
Cu	      2.14241      6.23975      4.07772         0.131379     -0.008361     -0.041798
O	      4.15255      4.21758      6.01411        -0.039944     -0.044553      0.049568
O	      1.93251      6.32272      5.98401         0.056943      0.010757      0.001247
O	      2.20989      2.24156      2.02575        -0.025141      0.003376      0.011656
O	      4.02270      4.07720      2.22039        -0.015926      0.055367     -0.020014
O	      4.22997      1.99086      3.95173         0.016210      0.077527     -0.046869
O	      6.38634      4.11482      4.06854        -0.089072      0.087626      0.013641
O	      6.23047      1.95632      5.87643         0.046884      0.017618      0.157286
O	      8.50899      4.26573      6.04730        -0.045763     -0.011197      0.084402
O	      1.95530      4.15282      3.93137         0.139823     -0.007564      0.012438
O	      4.15028      6.41815      4.06924        -0.066727     -0.237319      0.027267
O	      6.23943      6.32948      6.20516        -0.044911      0.046918     -1.092480
O	      6.33666      4.25601      8.09186         0.004985     -0.264958      0.063477
O	      8.23088      6.17895      8.17251         0.259508     -0.052719      0.072684
O	      4.19830      8.62143      6.11446         0.018870     -0.096825      0.052072
O	      4.19150      6.48789      8.15198        -0.178049      0.062336      0.063847
O	      6.14277      8.36798      8.20058         0.011668      0.194832     -0.012823
O	      6.11098      6.34423      9.89679         0.003107     -0.111600      0.403771
O	      8.29409      8.63282     10.01270         0.163460     -0.053873     -0.019096
