# total energy = -203.46581863 eV
 
CRYSTAL
PRIMVEC
0.029529 6.106008 6.155694 
6.247041 0.027010 6.158045 
4.181199 4.088710 0.001486 
PRIMCOORD
36 1
Li	      6.25543      4.06005      2.08801        -0.015024     -0.027147     -0.004370
Li	      4.14037      2.05780      2.05971        -0.040583     -0.044386      0.076047
Li	      6.29088      2.10718      4.14824         0.028559     -0.052249      0.038970
Li	      4.21372      2.09757      6.11724         0.002314     -0.003379     -0.036645
Li	      6.22199      4.06619      6.14311         0.001632     -0.011373      0.057427
Li	      6.25459      4.10930     10.24399        -0.037041     -0.004158     -0.059343
Li	      8.35125      6.15771     10.27714        -0.038410      0.021974     -0.034623
Li	      2.13001      4.08899      6.11181         0.008979     -0.024491     -0.043471
Li	      4.22125      4.09274      8.20821         0.083937     -0.020675      0.046644
V	      6.32941      6.23604      8.18450         0.149797     -0.256474      0.001307
Fe	      4.24296     10.16419      6.18037        -0.017800     -0.077206     -0.157262
Fe	      4.13517      6.08733      6.13626         0.116198      0.321908     -0.020153
Co	      8.28824      4.06611      4.09424        -0.026541      0.728247     -0.145501
Co	      2.09199      4.07181      2.08411        -0.281354      0.005788     -0.131871
Co	      2.09888      2.04386      4.10451         0.095910      0.017808     -0.019775
Ni	      8.34905      8.16954     12.30298        -0.031637     -0.002077     -0.158373
Ni	      6.22152      2.11912      8.21434        -0.063687      0.067370      0.064597
Ni	      4.21328      4.03348      4.11538        -0.142139     -0.115460     -0.077247
O	      2.03806      2.15541      2.17916         0.033620      0.039507     -0.049304
O	      4.05244      4.10365      2.06189         0.031329     -0.036156     -0.062349
O	      4.02136      1.96668      4.10488        -0.181855     -0.500788     -0.005796
O	      6.26466      4.20301      4.08049         0.593049      0.027222      0.054048
O	      6.27474      1.95485      6.19687        -0.036603      0.134509     -0.018391
O	      8.44868      4.07997      6.24100         0.016582      0.068609      0.109602
O	      2.16219      3.97204      3.98182         0.030230     -0.172824      0.084857
O	      4.31244      6.09127      4.12009         0.041739      0.271584      0.168233
O	      4.17871      4.18974      6.10623         0.015282     -0.301762      0.115858
O	      6.22240      6.15062      6.22807        -0.066192      0.022643      0.123199
O	      6.40550      4.18699      8.20885         0.151890      0.123092     -0.040783
O	      8.22634      6.04925      8.24044        -0.099800     -0.032238     -0.035687
O	      2.09295      6.11574      6.16126        -0.012335     -0.107642      0.074301
O	      4.17364      8.15706      6.15575         0.056108     -0.079034      0.047350
O	      4.37813      6.09743      8.17561        -0.059751     -0.043108     -0.120253
O	      6.32750      7.97579      8.21982         0.040603      0.226851     -0.086541
O	      6.21353      6.15741     10.14939        -0.370183     -0.097631      0.151675
O	      8.34228      8.34309     10.24838         0.023174     -0.066854      0.093623
