# total energy = -204.75767144 eV
 
CRYSTAL
PRIMVEC
0.013285 6.193108 6.177891 
6.301006 0.027972 6.163349 
4.218596 4.137382 0.000483 
PRIMCOORD
36 1
Li	      6.25058      0.09244      6.13089        -0.123527      0.057060      0.114084
Li	      8.36257      2.10945      6.13640        -0.051614      0.125152      0.118901
Li	      6.27258      2.10123      4.20491        -0.018610      0.030509      0.151617
Li	      2.23172      2.05134      4.11868         0.004081     -0.018259     -0.043272
Li	      4.21412      4.03261      4.16279        -0.063249      0.019467     -0.102523
Li	      4.27437      2.09081      6.06610         0.099661     -0.137279      0.041851
Li	      6.31777      4.10216      6.08857         0.185145     -0.063205     -0.042795
Li	      6.29453      4.22302     10.27722         0.082024     -0.014467      0.000454
Li	      2.13093      4.14102      6.15255        -0.026821      0.045676     -0.071573
V	      4.33796      6.21645      6.01942        -0.124097      0.327138     -0.111696
Fe	      6.28397      4.08978      2.12475        -0.376213      0.378224     -0.217302
Fe	      6.31702      2.13585      8.04617         0.163040     -0.228784      0.142874
Co	      4.19279      2.08356      2.12024        -0.091319     -0.141144     -0.011520
Co	      8.40550      4.16499      8.17749         0.118282      0.211647      0.251095
Co	      8.28439      6.25648     10.35950         0.097802     -0.590867      0.091139
Co	      8.41651      8.27380      8.20613         0.157153     -0.100404     -0.014853
Cu	      8.43186      4.16858      4.23735         0.020679     -0.050723      0.422414
Cu	      6.29387      6.22202      8.26312         0.097807     -0.106364     -0.062723
O	      6.26642      6.20143     10.22314        -0.043814      0.076145      0.010403
O	      2.04214      2.10472      2.09679         0.184784     -0.379500      0.027383
O	      4.25558      4.18388      2.07627         0.310957      0.165866      0.053405
O	      4.22083      2.00310      4.05601        -0.027756     -0.036599     -0.211261
O	      6.45946      4.14536      4.02296        -0.000871     -0.029128      0.188642
O	      6.29808      2.09566      6.21213         0.021455      0.037796     -0.250815
O	      8.42369      4.17104      6.37738        -0.054523     -0.055598     -0.835661
O	      2.10796      4.32028      3.92083        -0.092653      0.327738      0.557425
O	      4.22776      6.19204      4.26102         0.003791      0.020937     -0.024907
O	      4.19726      4.31980      6.27561         0.055118     -0.203115     -0.047362
O	      6.14689      6.21097      6.25570        -0.052607      0.014037     -0.066591
O	      6.21913      4.12264      8.23942         0.320383      0.176388     -0.019469
O	      8.51493      6.31791      8.26430        -0.147737     -0.195151     -0.005461
O	      2.24431      6.20839      6.17532         0.027518     -0.082933     -0.076106
O	      4.22265      8.04345      6.29429         0.012334      0.014953      0.089686
O	      4.09830      6.07677      8.10874         0.124905      0.386407     -0.033217
O	      6.43760      8.29284      8.20032        -0.840859     -0.204709      0.029628
O	      8.43120      8.18494     10.15413         0.049352      0.223090     -0.041894
