# total energy = -138.87742994 eV
 
CRYSTAL
PRIMVEC
0.001336 2.066378 2.057165 
-14.659644 -2.099468 4.138117 
2.101044 -4.177587 2.103152 
PRIMCOORD
24 1
Li	     -9.30452     -5.23087      5.20282         0.031472      0.018852     -0.017414
Li	     -7.41808     -3.24402      5.27520         0.011101     -0.001309     -0.006119
Li	     -5.28136     -3.10598      3.09409        -0.006446      0.003514     -0.005136
Li	     -3.30471     -1.13131      3.18017        -0.000078     -0.000077     -0.001474
Li	     -1.08433     -1.06556      1.05811        -0.002285      0.009525     -0.007929
Li	    -13.39086     -0.92274      5.03486         0.004325     -0.005683      0.017422
Mn	      1.05425     -1.03646      3.10587        -0.022148     -0.016447      0.014767
Mn	     -1.10048     -3.14970      3.12261        -0.019438      0.005654     -0.005325
Mn	     -7.31223     -1.06086      3.10643        -0.026766     -0.006280      0.001004
Ni	     -3.13524     -3.17323      5.20373         0.006350      0.016405     -0.019456
Ni	     -9.42624     -1.09650      5.20201         0.045442      0.012597     -0.009610
Ni	    -11.45985     -3.10807      5.14949        -0.033944     -0.044788      0.047580
O	    -11.74226     -3.14783      7.24837        -0.091739     -0.074757      0.086415
O	     -9.42141     -3.11396      5.15901         0.101416     -0.117366      0.113813
O	     -7.29339     -0.93806      5.04915         0.087862      0.013635     -0.019921
O	     -5.34395     -1.04464      3.08988        -0.029520     -0.114693      0.105286
O	     -3.12499      1.09285      2.96611         0.081011      0.017520     -0.001251
O	      0.91073     -3.03011      3.03036         0.011199      0.043695     -0.040365
O	    -11.48759     -1.09668      5.19752        -0.125311      0.099074     -0.095623
O	     -9.22110     -1.09245      3.13677         0.052701      0.098243     -0.098167
O	     -5.19883     -3.27055      5.30070        -0.105025     -0.029536      0.036535
O	     -2.98853     -3.15032      3.12313         0.051528      0.092271     -0.105489
O	     -0.96042     -1.10177      3.18943         0.040674      0.015690     -0.026207
O	    -13.67032     -3.27399      5.31812        -0.062381     -0.035739      0.036663
