# total energy = -206.61217778 eV
 
CRYSTAL
PRIMVEC
-0.007239 6.229449 6.212925 
6.240152 -0.015166 6.220707 
4.156117 4.153902 -0.006151 
PRIMCOORD
36 1
Li	      4.07169      2.10818      2.15916         0.137786     -0.088056      0.117012
Li	      4.07569      0.07874      4.09251        -0.031716      0.105562     -0.169036
Li	      2.11232      4.09987      2.24256        -0.060679      0.089069     -0.032997
Li	      2.17468      2.19196      4.16311         0.002262     -0.082397      0.321884
Li	      4.07338      4.09964      4.15783         0.122289     -0.002777      0.184303
Li	      4.09213      2.15477      6.12707        -0.287225      0.364086     -0.080081
Li	      6.21250      4.21200      6.10256        -0.243709      0.184298      0.016160
Li	      0.16249      4.10737      4.13286        -0.009516     -0.091608     -0.034473
Li	      2.10624      4.11812      6.08806         0.319463     -0.322016      0.103534
V	     10.19576      4.03894      6.20314         0.374382     -0.137298      0.033778
Fe	      0.01768      2.13797      2.14836        -0.549603      0.217973      0.315945
Fe	      6.27783      6.19342      8.17733        -0.407047      0.079614     -0.624245
Co	      8.31983      8.27967     12.38415        -0.442374     -0.497807      0.753325
Co	      6.25634      4.17045      2.11253         0.297036     -0.540200      0.614705
Co	      6.10963      2.14781      4.14900         0.758562     -0.060795     -0.058627
Co	      4.20839      6.05293      6.15231         0.097074      0.570791     -0.176040
Co	      8.31847      8.28609      8.29315         0.129643      0.357621     -1.170752
Cu	      2.10286      6.14456      4.15656         0.140072     -0.044470     -0.106152
O	      2.10944      4.23759      4.14036        -0.081683      0.162142     -0.014585
O	      1.99180      2.06692      2.04635         0.232228      0.213455     -1.310437
O	      4.18077      4.23227      1.88121        -0.175968      0.019023     -0.248050
O	      4.29340      2.07474      4.12655         0.073406      0.128506     -0.056751
O	      6.26800      4.11765      4.00898        -0.237969     -0.290482     -0.058630
O	      6.27923      1.88493      6.24424         1.370601      0.233889     -0.025456
O	      8.42899      4.15335      6.20692        -0.257559     -1.118845     -0.049977
O	      4.10417      6.23172      4.13781        -0.166097      0.117827     -0.775300
O	      4.16245      4.20237      6.36654        -0.018163     -1.019040      0.621233
O	      6.14333      6.25084      6.24093         0.619959     -0.021893      0.173341
O	      6.12265      4.15652      8.29241         0.107988     -0.199803      0.110875
O	      8.28240      6.34266      8.18075         0.351227     -0.126470      0.118844
O	      2.09682      6.21393      6.42659        -0.359844      1.635256     -0.552515
O	      4.14133      8.45683      6.25932        -1.196197      0.196735     -0.168328
O	      4.22113      6.09468      8.26907        -0.088139     -0.206693      0.596657
O	      6.37908      8.24277      8.32492        -0.084925      0.116781      0.037683
O	      6.27175      6.21944     10.55811         0.061340      0.101861      0.209909
O	      8.17804      8.15105     10.30398        -0.496905     -0.043836      1.383245
