# total energy = -206.62742732 eV
 
CRYSTAL
PRIMVEC
0.006733 6.241500 6.099219 
6.280995 -0.030455 6.137224 
4.172693 4.171415 -0.006126 
PRIMCOORD
36 1
Li	      6.29769      0.07098      6.10150        -0.077879     -0.048887      0.062671
Li	      8.25262      2.03166      6.16947         0.096732      0.049771      0.075867
Li	      6.29547      2.04974      4.21012        -0.003080      0.053943     -0.062132
Li	      0.09664      1.98196      1.88149        -0.008519     -0.026997      0.069151
Li	      8.35362      4.11146      8.08114         0.006263     -0.002256     -0.065896
Li	      4.36579      2.00542      6.06900        -0.045507     -0.062741     -0.018920
Li	      6.31656      4.00324      6.09300         0.048739      0.030971     -0.050814
Li	      4.14619      8.41357      4.17210        -0.042299      0.009035     -0.009927
Li	      2.04400      4.20418      6.10870         0.024544      0.017076     -0.033676
V	      4.29824      4.00667      8.09216         0.023648      0.012188     -0.041693
Fe	      4.18664      8.35714      8.05042        -0.039115      0.158676      0.246715
Fe	      6.24164      6.29355      4.14963         0.078994     -0.040697     -0.004090
Co	      6.23701      4.16755      2.05318        -0.109798      0.005490      0.141937
Co	      8.43587      4.10649      4.25335        -0.323112      0.275436     -1.163948
Co	      4.19381      4.13966      4.10295        -0.092696     -0.008504      0.110457
Co	      2.03942      6.20627      4.17514         0.001333      0.103427     -0.161511
Co	      6.27427      6.27136      8.09266         0.127734     -0.079720     -0.101267
Ni	      4.14916      6.28029      6.10465        -0.021110     -0.034859      0.053978
O	      2.13995      1.94962      2.13251        -0.020542     -0.011966     -0.089964
O	      4.29301      4.10605      2.19197         0.215400     -0.022237      0.033766
O	      4.11441      2.14329      4.03874         0.070078      0.103992     -0.022398
O	      6.18434      4.23313      4.00148        -0.023709     -0.051113     -0.078449
O	      6.30295      2.03020      6.12073         0.018575      0.008482      0.001499
O	      8.35512      4.14238      6.01046         0.230507     -0.128393      0.552855
O	      2.23165      4.12828      4.02767         0.168544      0.153163     -0.026373
O	      4.18182      6.08507      4.08722        -0.134416     -0.092396     -0.058358
O	      4.17575      4.18404      6.20675        -0.043463      0.076591      0.030494
O	      6.19823      6.24801      6.11084        -0.175361      0.088977      0.214873
O	      6.08375      4.20885      8.11586        -0.092284      0.043247     -0.004895
O	      8.36644      6.39389      8.13479        -0.159855     -0.055738      0.069812
O	      2.14367      6.26344      6.21842         0.052771     -0.028705     -0.019043
O	      4.17512      8.31260      6.16878         0.046807     -0.061859     -0.140799
O	      4.04553      6.20643      8.25740         0.205443     -0.088479      0.226861
O	      6.33515      8.42196      8.14693         0.019829     -0.058852     -0.028741
O	      6.26564      6.22593     10.05660        -0.030359     -0.010435      0.189809
O	      8.37058      8.33121      9.96249         0.007166     -0.275634      0.102147
