# total energy = -210.55229549 eV
 
CRYSTAL
PRIMVEC
-0.031051 6.317896 6.060002 
6.273072 -0.034067 6.063148 
4.156555 4.188418 0.002773 
PRIMCOORD
36 1
Li	      4.16939      4.17990      0.06996         0.008080     -0.026989     -0.002503
Li	      2.04396      8.40205      6.06357        -0.021290      0.020327     -0.000439
Li	      2.13173      2.11965      4.00433         0.017816      0.046575      0.017098
Li	      4.13019      4.14568      4.04933        -0.074756     -0.001385      0.045680
Li	      4.21253      2.13143      6.02834        -0.033353      0.015270     -0.001770
Li	      6.18971      4.13244      6.05582         0.003797     -0.003773     -0.027811
Li	      4.09823      8.37923      4.09763         0.042334     -0.025470      0.035613
Li	      8.33547      6.31350     10.13764         0.010656     -0.019830      0.067182
Li	      8.29862      8.38096      8.09190        -0.083996      0.030432     -0.042291
V	      6.37411      6.11977      8.05158        -0.113341      0.121121     -0.091432
Fe	      8.29990      4.14881      4.22551         0.070699      0.033844     -0.143805
Fe	      6.28006      2.11892      4.19089        -0.053225     -0.068272     -0.106534
Co	      2.08957      6.29248      8.07019         0.004030      0.091090      0.065086
Co	      4.16944      8.39157      8.06975         0.012124     -0.045277     -0.049956
Co	      4.20443      6.22100      2.02176         0.106319     -0.125063     -0.051347
Co	      2.12952      4.11697      2.04490         0.039934      0.018756      0.047513
Co	      2.07877      4.25455      5.93676        -0.158788     -0.010576      0.069099
Co	      4.11372      6.27768      5.85093        -0.067021     -0.001141     -0.102824
O	      2.21590      1.94559      2.00153         0.035899     -0.054283     -0.037674
O	      4.32033      4.05721      2.03773         0.015098      0.004095     -0.049001
O	      4.23255      1.99725      3.95950         0.025497      0.028302     -0.067885
O	      6.30300      4.12900      3.95829        -0.035111      0.039961     -0.031607
O	      6.21109      2.10464      6.10932        -0.018140      0.023707      0.175101
O	      8.36095      4.16874      6.11870        -0.000885      0.012798      0.140356
O	      2.04892      4.19383      3.99112         0.004896     -0.002367      0.133595
O	      4.12619      6.33616      4.02560         0.014569      0.017968      0.061415
O	      3.96218      4.29377      6.06787         0.039151      0.045528     -0.101849
O	      6.16259      6.32854      6.23596         0.003441      0.018108      0.078760
O	      6.21313      4.36150      8.08306        -0.021093     -0.130010     -0.011595
O	      8.13738      6.28197      8.08419         0.053146      0.025999      0.020380
O	      2.11325      6.26764      6.15743         0.048421     -0.055349      0.046457
O	      4.31613      8.34471      6.12369         0.018242     -0.029779      0.028551
O	      4.13841      6.44144      8.03563         0.014326      0.052604      0.010321
O	      6.11280      8.42762      8.08527         0.012709      0.038974     -0.087849
O	      6.15621      6.37648      9.91193         0.046719     -0.025167     -0.025096
O	      8.22618      8.48010     10.09410         0.033097     -0.060727     -0.008941
