# total energy = -199.96008722 eV
 
CRYSTAL
PRIMVEC
0.047518 6.082515 6.394668 
6.165845 0.036649 6.406862 
4.143292 4.096677 -0.008897 
PRIMCOORD
36 1
Li	      6.22258      4.13113      2.19533         0.058828      0.012089     -0.007568
Li	      4.20368      6.12673     10.56660        -0.044329      0.027948      0.018663
Li	      4.12767      6.15522      2.25824         0.010347      0.053831     -0.058402
Li	      6.11625      6.06761      4.24800         0.044255     -0.061331     -0.034092
Li	      6.18424      4.14028      6.41421         0.062620      0.010641      0.055514
Li	      4.15118      8.06230      4.18910         0.002668     -0.111622     -0.019687
Li	      8.31466      6.16934     10.61727        -0.087086      0.030344     -0.012674
Li	      4.19197      6.05914      6.30593         0.013101      0.055728     -0.035142
Li	      6.18651      6.11707      8.70164        -0.054123     -0.017775      0.072798
V	      2.04588      4.07120      6.35475        -0.103042     -0.086345      0.069930
Fe	      8.14586      2.03987      6.36811         0.139640      0.115386      0.059316
Fe	      8.13896      4.13658      8.62742         0.044336     -0.125891     -0.108746
Fe	      8.32543      6.13109      6.47950         0.032663     -0.117066     -0.017984
Co	      4.16526      8.03980      8.48917        -0.043680      0.241855      0.001980
Cu	      6.18492      2.11530      4.28336         0.264995     -0.013283     -0.035467
Ni	      6.20588      6.12827     12.76086        -0.040751     -0.024361     -0.021635
Ni	      4.18004      4.10467      4.22841        -0.166821      1.150213     -0.250887
Ni	      4.21712      4.14094      8.60360        -0.016252      0.031602      0.087660
O	      6.21587      6.34881     10.74460        -0.027921     -0.164511     -0.106570
O	      2.21326      2.04659      2.00624         0.081587     -0.107193      0.014492
O	      4.05378      3.87238      2.10462        -0.009349     -0.206908      0.287883
O	      4.29610      2.16018      4.37214        -0.163120     -0.724399     -0.249033
O	      6.08005      3.99817      4.26512         0.698569     -0.195478      0.041210
O	      6.21405      2.05706      6.61571        -0.142820      0.135598      0.106726
O	      8.23274      4.10784      6.49848        -0.005083      0.011935      0.015336
O	      2.22092      4.07550      4.31304        -0.566308     -0.246190      0.204996
O	      4.19545      5.94596      4.21942         0.001582      0.384445      0.034124
O	      4.00946      4.06428      6.46639         0.028261      0.113322     -0.229254
O	      6.30976      6.32515      6.27711        -0.075193      0.024449     -0.070097
O	      6.23818      4.12394      8.65418        -0.025098      0.002364     -0.031053
O	      8.24220      6.15032      8.44567         0.033963     -0.057211      0.123648
O	      2.10254      6.02118      6.33110         0.120116     -0.079932     -0.056229
O	      4.28130      8.13913      6.21870        -0.096956     -0.136616      0.273728
O	      4.17424      6.19702      8.52581        -0.040194      0.158886      0.001639
O	      6.13699      8.17971      8.20431        -0.024689     -0.067530     -0.158554
O	      8.13231      8.22038     10.71571         0.095282     -0.016992      0.033430
