# total energy = -201.23868480 eV
 
CRYSTAL
PRIMVEC
0.026458 6.220177 6.127960 
6.355802 0.032251 6.121932 
4.246773 4.152382 0.012051 
PRIMCOORD
36 1
Li	      0.05543      0.01650      0.03839         0.014507     -0.021831      0.016195
Li	      4.36098      8.32980      8.18446         0.035199      0.031688     -0.032893
Li	      8.35877      4.26460      8.20317        -0.140033      0.032176     -0.034566
Li	      8.35314      6.27225      6.21869        -0.099229     -0.010511     -0.000340
Li	      6.29398      4.22475      6.21011        -0.015144      0.018618     -0.005590
Li	      6.44949      4.18179     10.11060         0.001772     -0.017844      0.012289
Li	      6.43337      8.25514      6.20025        -0.032914     -0.035476     -0.028416
Li	      4.25800      4.11262      8.05045         0.025741     -0.015573     -0.002638
Li	      6.47505      6.19948      8.11784         0.063961     -0.148901     -0.008680
V	      2.25284      2.19261      0.06251         0.199640      0.135210     -0.082358
Fe	      4.38315      6.27083     10.11025        -0.112471     -0.018315      0.403873
Fe	      6.23443      2.20665      8.09714         0.003993     -0.070495      0.026239
Fe	      4.15494      4.10148      4.12231         0.088319     -0.056025     -0.105028
Co	      6.34078      6.25155      4.10526         0.012945      0.025638      0.222379
Cu	      6.39566     10.32713      8.15311        -0.071471      0.069165     -0.180866
Cu	      6.40670      8.31718     10.22466        -0.038207     -0.181009     -0.004123
Cu	      4.30236      6.18565      6.16892         0.043980      0.175855      0.027677
Ni	      8.39919      6.22464     10.18784         0.004791     -0.038811     -0.022817
O	      4.16789      6.20582      8.22517        -0.036694     -0.015267     -0.479831
O	      6.35586      8.38982      8.29014        -0.017208     -0.202852      0.169905
O	      2.07743      2.05428      1.95687        -0.014278      0.082353      0.169220
O	      4.37824      4.25237      2.13002         0.045679     -0.101756     -0.159914
O	      4.01797      2.05636      4.13781        -0.093718      0.040673     -0.021308
O	      6.41517      4.26825      4.02708         0.012285      0.018328      0.348800
O	      6.57419      2.06832      6.10688         0.060046      0.001963     -0.097070
O	      8.53404      4.01235      6.08470         0.034477      0.037025      0.011961
O	      2.18141      4.06848      4.08241        -0.038316     -0.013953     -0.080655
O	      4.33677      6.19365      4.05230         0.028745     -0.037385      0.138173
O	      4.26402      4.22969      6.02824        -0.036604     -0.145287      0.156123
O	      6.25694      6.24520      5.98805         0.090872      0.015249     -0.054776
O	      6.36466      4.06287      8.15626        -0.029149      0.229117     -0.010666
O	      8.53909      6.22510      8.18847        -0.013324      0.027897     -0.112144
O	      2.23333      6.30956      6.11724        -0.052199      0.049693     -0.172042
O	      4.08703      8.24411      6.20369        -0.031921      0.007839      0.023737
O	      6.31486      6.30921     10.19790         0.074364      0.034663      0.015866
O	      8.57430      8.33273     10.41962         0.031566      0.098141     -0.045716
