# total energy = -201.53055205 eV
 
CRYSTAL
PRIMVEC
0.003790 6.013575 6.377128 
6.291198 -0.023656 6.404085 
4.192097 4.024944 -0.012957 
PRIMCOORD
36 1
Li	      6.28969      5.98913     12.69750        -0.020661      0.068629      0.067560
Li	      2.21102      6.00853      8.48077        -0.154739      0.052884     -0.002230
Li	      6.30688      6.00224      4.31442        -0.141607      0.060370      0.024346
Li	      8.37485      6.00820      6.45116         0.005890      0.058325      0.175554
Li	      6.29090      4.07163      6.37175        -0.027859     -0.069557      0.012664
Li	      2.10820      6.01743      4.24186         0.093486     -0.050386     -0.083722
Li	      4.20830      6.03982      6.40582         0.014378     -0.050200     -0.074878
Li	      4.24109      4.03592      8.58344         0.029959     -0.137172     -0.042078
Li	      6.18461      6.01714      8.56211         0.204731     -0.063200     -0.034092
V	      6.34534      8.02225      6.47978         0.349972     -0.036952     -0.548912
Fe	     10.41676      5.99440      8.46944        -0.055460     -0.096332      0.645118
Fe	      8.34043      4.01135      8.44739         0.104906      0.267966      0.524633
Fe	      4.23555      4.01639      4.28993         0.009657      0.421643     -0.213516
Co	      4.18026      7.96861      8.44641        -0.009901      0.555635      0.202269
Cu	      2.06667      7.94402      6.33303        -0.237823     -0.161389      0.176745
Cu	      8.32619      4.01517      4.29752        -0.162898      0.152773     -0.117356
Cu	      6.27708      1.96056      4.34348         0.159964     -0.054620      0.122478
Cu	      0.05339      4.03007      4.26980        -0.024210     -0.107945     -0.214142
O	      4.18327      6.15526      8.48054         0.033720     -0.126485      0.463661
O	      6.12081      6.04825     10.66736         0.227529      0.086722     -0.002157
O	      8.24663      8.05791     10.75256        -0.125141     -0.138971      0.014317
O	      2.12074      2.00977      1.99557         0.973457     -0.163465      0.024901
O	      4.13993      3.93207      2.18965         0.074447     -0.632616      0.073112
O	      4.30313      2.00401      4.19131        -0.015530     -0.387384     -0.872293
O	      6.26038      3.91402      4.30916         0.127991     -0.053518     -0.022226
O	      6.18139      1.98965      6.68613         0.142551      0.003438     -1.269221
O	      8.33480      3.91389      6.52616         0.016499      0.077548     -0.760895
O	      2.25303      3.98233      4.21763        -0.350995     -0.035465      0.108727
O	      4.28174      5.95640      4.03699         0.123736      0.185569      0.494332
O	      4.03916      4.05209      6.27062        -0.025080     -0.086306      0.158804
O	      6.32537      6.21639      6.34596        -0.003168     -0.053624     -0.002945
O	      6.35063      3.95998      8.70688        -0.121854      0.327027     -0.019322
O	      8.48449      5.96001      8.55357        -0.534401      0.072215      0.004490
O	      2.12477      5.90333      6.30824        -0.031135      0.089776      0.003382
O	      4.42031      8.03517      6.20865        -0.173580      0.012399      0.582906
O	      6.23957      8.05018      8.26669        -0.476832      0.012668      0.399986
