# total energy = -198.40285777 eV
 
CRYSTAL
PRIMVEC
-0.003897 6.265991 6.118052 
6.295109 -0.006361 6.121291 
4.199415 4.181682 -0.007156 
PRIMCOORD
36 1
Li	      4.16743      4.17739      0.01998        -0.111873      0.118090      0.120051
Li	      8.35645      2.13583      6.12795        -0.173958      0.126580      0.050383
Li	      6.23479      4.21940      2.11688        -0.167720      0.215663      0.121565
Li	      8.27660      4.20665      4.13509        -0.001059      0.023007      0.038210
Li	      6.25979      2.20763      4.12465        -0.025067      0.048564      0.132436
Li	      0.12958      2.04132      2.02168         0.120440     -0.090729     -0.006656
Li	      2.12530      2.01896      4.02426         0.016552     -0.059215     -0.164722
Li	      4.28476      4.13380      4.03437         0.078327      0.002013     -0.225979
Li	      4.18868      8.30206      4.12166        -0.030861      0.031946     -0.183399
V	      6.27742      6.25435      8.26988         0.151344     -0.702891      0.255290
Fe	      2.18269      6.27511      4.12779        -0.190346      0.119656     -0.371127
Fe	      4.17920      6.31226      6.04700         0.045917     -0.297718      0.083532
Fe	      8.36324      8.36671      8.19624         0.448684     -0.120031      0.342214
Co	      2.16514      4.14862      2.03212        -0.435038     -0.645818     -0.240011
Ni	      4.15334      2.14171      2.09689        -0.191475      0.207465      0.270255
Ni	      4.25611      2.05718      6.01424         0.049163     -0.295998      0.076834
Ni	      6.31982      4.12716      6.04099         0.648967     -0.768317     -0.840304
Ni	      2.08362      4.16065      6.04750        -0.280202      0.085722     -0.616968
O	      2.15770      2.27221      2.04759        -0.103427      0.160890     -0.052732
O	      3.98783      4.16410      2.02365         0.572841     -0.029930      0.040480
O	      4.20178      2.06764      4.05089        -0.011107      0.079632     -0.233824
O	      6.31192      4.17451      4.18278        -0.085747      0.309864     -0.276256
O	      6.21460      2.22701      6.09281         0.215075     -0.267019      0.315324
O	      8.36783      4.21569      6.27815        -0.082550      0.011327     -0.561520
O	      2.03881      4.28538      3.93015         0.094597     -0.037630      1.581884
O	      4.13830      6.27077      4.12951         0.141293      0.011437      0.016950
O	      4.16242      4.19921      6.20363        -0.523964      0.051293     -0.245295
O	      6.28691      6.21566      6.21676        -0.175051      0.658747      0.024137
O	      6.35025      4.25341      8.03498        -0.343568      0.337664      0.498663
O	      8.30284      6.22505      8.12412        -0.062335      0.183546      0.040996
O	      2.14720      6.22510      6.09523         0.000151     -0.248486      0.164755
O	      4.27046      8.26512      6.20854         0.582239      0.295206     -0.139585
O	      4.30007      6.20664      8.13620        -0.081065      0.046096     -0.133724
O	      6.33228      8.22591      8.11271        -0.080063      0.304076     -0.377509
O	      6.34714      6.21837     10.03579         0.051363      0.079751      0.188852
O	      8.43013      8.25062     10.07639        -0.060479      0.055547      0.306799
