# total energy = -204.10907609 eV
 
CRYSTAL
PRIMVEC
-0.011564 6.279942 6.178488 
6.216611 0.022003 6.144808 
4.159507 4.179334 -0.000291 
PRIMCOORD
36 1
Li	      0.11095      6.20264      6.10414        -0.106734      0.050290      0.000347
Li	      6.23463      8.35585     10.17615         0.004473     -0.037994     -0.013012
Li	      6.25280      6.31120      4.16507        -0.003289      0.045851      0.033380
Li	      4.08399      4.19214      4.15607        -0.075938     -0.002400      0.024527
Li	      1.99369      6.26182      4.25949        -0.054120     -0.006222     -0.038015
Li	      2.04136      4.28109      6.19716         0.047314     -0.096746      0.004080
Li	      4.09785      6.29835      6.18783         0.166510     -0.041220      0.078412
Li	      8.16529      8.47028      8.21351        -0.010274      0.047832     -0.028245
Li	      6.15014      6.42287      8.21305        -0.129328      0.135423     -0.041570
V	      4.10634      6.24517      2.15465        -0.097845     -0.031994     -0.084039
Fe	      2.10668      4.11735      2.12024         0.077083     -0.002020     -0.215446
Fe	      4.08816      2.15941      6.02084         0.022006     -0.030055      0.185590
Fe	      6.16328      4.24554      6.02556        -0.017087      0.041111      0.367237
Co	      6.25042     10.42587      8.24088        -0.045357     -0.627272     -0.857068
Co	      4.15392      6.27258     10.25939         0.176427      0.040279     -0.074759
Cu	      4.14711      8.45371      4.21365         0.141331     -0.086417     -0.034922
Ni	      2.10868      8.28231      6.13034        -0.113803      0.287866      0.027651
Ni	      4.23080      8.32386      8.20954        -0.063001     -0.044131      0.129905
O	      1.98413      2.05275      2.04118        -0.150170      0.743324      0.103262
O	      4.19717      4.31060      2.09538        -0.723796      0.183636      0.121336
O	      4.15694      1.95774      4.09153         0.021877     -0.017248     -0.027925
O	      6.36332      4.16708      4.07107        -0.104255      0.132043      0.208629
O	      6.20553      2.16540      6.29111        -0.013347     -0.114661     -0.061225
O	      8.25661      4.22287      6.15103         0.109118     -0.046103     -0.063246
O	      1.98497      4.21241      3.99110         0.019514     -0.000243      0.294582
O	      4.14225      6.34998      3.92468         0.003761     -0.047529      0.133553
O	      4.22135      4.10915      6.10570        -0.126751      0.120130     -0.048491
O	      6.29704      6.19153      6.21499        -0.067715      0.048577     -0.081858
O	      6.30160      3.99920      8.13752        -0.102403      0.065799      0.034625
O	      8.48688      6.19774      8.14325        -0.092924      0.067826      0.011527
O	      2.08583      6.30746      6.32161        -0.081379     -0.080616     -0.092691
O	      4.13148      8.36418      6.21518         0.107154      0.000704     -0.178669
O	      3.99637      6.31839      8.36011         1.382694      0.108430      0.115013
O	      6.18422      8.53376      8.21549         0.005105     -0.953322      0.100242
O	      6.07844      6.23151     10.21881        -0.006707      0.136006      0.068973
O	      8.39704      8.51270     10.27770        -0.098141      0.011067     -0.101688
