# total energy = -203.46379146 eV
 
CRYSTAL
PRIMVEC
-0.052599 6.238912 6.215151 
6.098323 -0.053197 6.216806 
4.058926 4.154492 -0.030329 
PRIMCOORD
36 1
Li	      9.98575      4.07506      6.17536         0.021439     -0.024706      0.131221
Li	      8.10848      2.16831      6.19734         0.013512     -0.073969      0.111523
Li	      8.06115      4.20866      8.22775         0.029173     -0.067855      0.065678
Li	      4.03608      4.17639      4.26249        -0.071719      0.092614     -0.009715
Li	      8.09670      6.24356      6.37207        -0.011398      0.015599      0.108002
Li	      6.14353      8.18862      6.19042        -0.019095      0.047343      0.099116
Li	      4.12530      6.12228      6.25754        -0.033992      0.033000      0.079142
Li	      8.17991      8.11789      8.19731        -0.039171     -0.002307     -0.016737
Li	      6.15765      6.11910      8.22319        -0.050262     -0.006762     -0.035723
V	      1.95918      6.17340      8.05127         0.123352     -0.200203     -0.223123
Fe	      6.09989      2.03241      4.23031        -0.127352      0.133115     -0.180391
Fe	      2.08286      2.11260      4.21473        -0.173736     -0.063452     -0.312184
Fe	      3.97912      8.30164      4.24865         0.039136     -0.083599     -0.217530
Co	      3.97720      8.36142      8.16187         0.257113      0.281136     -0.351244
Co	      6.04011      2.08251      8.28166         0.296961     -0.389849     -0.013465
Cu	      8.10071      4.13226      4.13722         0.089962     -0.085564     -0.182832
Cu	      6.05658      4.16086      6.25119        -0.055381     -0.034250      0.099756
Ni	      2.00609      6.14768      4.13849         0.050473     -0.087716      0.063734
O	      8.23245      6.13814      8.34924        -0.122482     -0.017022     -0.102541
O	      2.04300      1.92320      2.08047        -0.702257      0.103329      0.109755
O	      4.20431      4.20168      1.94238        -0.127583      0.820919      0.076683
O	      4.07438      2.19706      3.87635         0.093143     -0.067792     -0.151375
O	      6.14077      4.10447      3.87288         0.081950      0.021862     -0.010254
O	      6.04949      2.20953      6.26770         0.001538      0.011658     -0.044708
O	      7.94043      4.15114      6.11619         0.114310      0.036736     -0.128616
O	      1.94718      4.07759      4.22735         0.059836      0.048278      0.059603
O	      4.09059      6.22884      3.96772         0.077732     -0.015230      0.100323
O	      4.20228      4.15359      6.24364        -0.064305     -0.028881     -0.038792
O	      6.09778      6.07160      6.11297         0.020952      0.023660      0.089203
O	      6.07399      3.95721      8.49604        -0.001653      0.173255      0.091939
O	      2.03325      6.17242      6.30359         0.032187      0.020135     -0.019904
O	      3.97531      8.31769      6.21294        -0.018479      0.033615      0.272758
O	      3.87507      6.42919      8.28522        -0.228629     -0.817059      0.233134
O	      5.95136      8.44540      8.26313         0.477205      0.073509      0.113966
O	      5.99109      6.23225     10.36947        -0.129479     -0.040799      0.088802
O	      8.00400      8.12769     10.37935         0.096998      0.137253      0.044797
