# total energy = -92.53096083 eV
 
CRYSTAL
PRIMVEC
2.066756 2.067037 -0.000188 
-6.313543 6.313947 4.184945 
2.115765 -2.116332 4.219275 
PRIMCOORD
16 1
Li	     -1.19126      3.26135      5.30966        -0.005369      0.003571      0.001751
Li	     -1.25278      5.38596      7.52154         0.004191     -0.002511      0.015758
Li	      1.20859      0.85777      0.88712        -0.003040      0.003683     -0.015003
Li	      1.14943      2.98358      3.10083         0.004673     -0.003986     -0.000712
Mn	      1.05282      1.01465      5.25177         0.005601     -0.004765     -0.035852
Mn	     -3.16111      3.16334      3.15925        -0.006654      0.006196      0.033694
Ni	     -3.20690      5.27470      5.28572         0.039743     -0.039727     -0.059515
Ni	      3.16342      0.96989      3.12381        -0.039220      0.040317      0.059355
O	     -3.19167      5.25839      7.32278         0.117729     -0.116787      0.114932
O	     -1.20306      1.20423      1.10799        -0.031864      0.031502      0.068112
O	     -1.18081      3.25008      3.05309        -0.009850      0.007374      0.000183
O	     -3.15009      3.15252      5.01795         0.081517     -0.083555     -0.085839
O	     -3.02097      5.09016      3.08344         0.031772     -0.031413     -0.068077
O	     -5.23245      5.23286      5.27160        -0.117039      0.116623     -0.113454
O	      1.04117      1.02549      3.39299        -0.081988      0.082338      0.085857
O	     -0.92738      0.92808      5.35816         0.009796     -0.008861     -0.001190
