# total energy = -203.99057447 eV
 
CRYSTAL
PRIMVEC
0.015632 6.074491 6.366587 
6.183247 0.022565 6.358649 
4.137629 4.059664 -0.000194 
PRIMCOORD
36 1
Li	      6.17778      0.04562      6.33391        -0.004743      0.031891      0.062353
Li	      2.16614      5.98380      8.41826        -0.086783      0.064164     -0.025806
Li	      4.17417      8.07116      8.42458        -0.051437      0.059515      0.030530
Li	      6.30340      8.05315     10.57410        -0.046293      0.013460      0.085013
Li	      6.14718      2.12115      8.41761        -0.056083     -0.090095     -0.063781
Li	      4.13290      2.03334      6.32299         0.128621     -0.069674     -0.028622
Li	      4.09853      8.12108      4.44404         0.076334     -0.064869      0.102011
Li	      4.15502      6.08716      6.46041        -0.033225      0.059276      0.026484
Li	      6.19343      6.11607      8.47163         0.043104     -0.009897     -0.015996
V	      4.22666      4.07226      4.20189        -0.344077     -0.256651     -0.867683
Fe	      2.07402      2.00487      0.08705        -0.154877     -0.050083      0.087785
Fe	      4.35917      6.04662     10.52796        -0.112555      0.088933      0.068214
Fe	      2.04745      2.09290      4.19674         0.086198      0.120567     -0.218604
Co	      6.20629      4.07311      6.31356         0.041662     -0.137640      0.056398
Co	      8.20189      6.12415     10.64084         0.157698     -0.041846      0.192436
Cu	      8.15205      4.15941      8.43870         0.145828      0.133985      0.012959
Cu	      6.12600      8.11700      6.48333        -0.334234      0.044862     -0.068231
Cu	      4.12245      4.03424      8.43602         0.217078     -0.112267      0.107646
O	      8.24791      6.12442      8.72118        -0.013903     -0.004382     -0.123713
O	      6.32048      8.09830      8.37213        -0.022754     -0.020608      0.106592
O	      2.00883      2.14840      2.19293        -0.044322     -0.104874      0.028882
O	      4.03658      4.06199      2.38389         0.088971      0.061344      0.583696
O	      4.07319      2.09403      4.18200         0.072776      0.065355     -0.006208
O	      6.10376      4.08706      4.26542         0.110021      0.062593      0.098582
O	      6.31471      2.14623      6.36938        -0.288044      0.127625     -0.030617
O	      8.15192      4.08777      6.17358        -0.053803     -0.072308      0.023515
O	      2.17625      4.11770      4.45955        -0.116909      0.119152      0.016176
O	      4.11407      5.96726      4.25019        -0.324640      0.038630      0.063739
O	      4.30377      3.99426      6.11474        -0.155748      0.088735     -0.038631
O	      6.19753      6.05149      6.15581        -0.036445     -0.011537      0.035792
O	      6.13347      4.12365      8.20883        -0.080751     -0.042037     -0.091519
O	      2.02881      6.08254      6.25872         0.103171     -0.014858     -0.010419
O	      3.97112      8.11994      6.46115         0.590861     -0.089497     -0.027836
O	      4.12383      5.96745      8.62325         0.032702      0.136362     -0.085364
O	      6.24361      6.07892     10.63757         0.434294     -0.019593     -0.079813
O	      8.29757      8.06038     10.75253         0.032307     -0.103735     -0.005961
