# total energy = -206.06164824 eV
 
CRYSTAL
PRIMVEC
0.019053 6.176913 6.138442 
6.221874 0.016724 6.141490 
4.161537 4.133327 -0.002288 
PRIMCOORD
36 1
Li	      0.12324      6.13906      6.03280        -0.108997      0.044615      0.168664
Li	      8.33657      8.20648     12.20868        -0.073362      0.155056      0.081814
Li	      2.12380      6.14021      8.15538        -0.090825      0.087232      0.080242
Li	      4.24884      6.11920     10.18319        -0.015187      0.018383     -0.017399
Li	      2.09755      2.03991      4.07836         0.002308      0.068618     -0.176332
Li	      4.19871      4.10046      4.05293        -0.082572      0.007861     -0.147589
Li	      6.19420      4.28642     10.28782         0.052537      0.073034     -0.076814
Li	      8.16116      6.25961     10.32233         0.024956     -0.125474     -0.215542
Li	      6.20506      6.20377      8.31140         0.027482     -0.066970      0.019088
V	      4.19665      6.15772      2.18768         0.180198     -0.416620      0.159689
Fe	      4.18370      8.14770      8.17859        -0.360381      0.415578      0.276929
Fe	      4.14671      2.03478      6.08431         0.167952     -0.218131     -0.018123
Fe	      6.24655      4.18253      6.08247         0.194993     -0.156357      0.231587
Co	      2.09242      4.12701      2.25007        -0.143316      0.134127     -1.129696
Co	      2.07940      4.16183      6.08648         0.041947      0.379611     -0.815877
Co	      8.27259      8.29910      8.21704         0.013183     -0.096332      0.138878
Ni	      6.28540      8.22525     10.23891        -0.134564     -0.066162     -0.070539
Ni	      4.10953      6.22311      6.06828         0.246193     -0.015016     -0.167243
O	      6.22954      6.35454     10.22972        -0.009644     -0.103634      0.098349
O	      2.08360      2.10619      2.04344        -0.143014     -0.363351      0.050023
O	      4.08638      4.15977      2.05066         0.356797      0.216730      0.077255
O	      4.29169      2.06231      4.06791        -0.070342     -0.052505      0.091146
O	      6.22575      3.98622      4.19699         0.034539      0.203781     -0.063755
O	      6.18260      2.13590      6.26410         0.017734      0.035865      0.022704
O	      8.20904      4.22196      6.34190        -0.085930      0.032607     -0.078515
O	      2.06349      4.13824      4.07883         0.101898     -0.087143      0.940275
O	      4.20489      6.18669      3.95466        -0.049345      0.029153      0.018996
O	      4.09870      4.11857      6.23223         0.102906     -0.033181      0.010558
O	      6.29113      6.22822      6.06848        -0.098939      0.162843      0.018494
O	      6.11249      4.06970      8.16678        -0.100890      0.031047     -0.051529
O	      8.42122      6.30070      8.13314        -0.020931      0.199178      0.059265
O	      2.14100      6.04200      6.10847        -0.242132     -0.372357     -0.015360
O	      4.31055      8.23477      6.19428        -0.063831      0.098092     -0.185665
O	      4.16018      6.16162      8.12890         0.036937     -0.104752     -0.034525
O	      6.29611      8.25509      8.02838         0.043600     -0.130132      0.701640
O	      8.18725      8.26618     10.10304         0.248040      0.014704      0.018906
