# total energy = -209.86162488 eV
 
CRYSTAL
PRIMVEC
0.008851 6.266018 6.203790 
6.257589 -0.010772 6.223334 
4.169597 4.188161 -0.005038 
PRIMCOORD
36 1
Li	      4.18166      2.10525      2.08335         0.012308     -0.016518     -0.044083
Li	      6.18938      2.16803      4.07863        -0.005791      0.017357     -0.017148
Li	      2.11332      4.19113      2.05973         0.039468     -0.028900      0.006879
Li	      6.34073      6.23022      4.18949        -0.058897     -0.042761     -0.002000
Li	      4.21889      4.03239      4.17326         0.076204      0.027110      0.080127
Li	      6.29872      8.34120      6.26034        -0.045574      0.075997      0.031484
Li	      4.20585      6.23122      6.26934         0.050033     -0.045038      0.009431
Li	      4.13041      4.22392      8.25614        -0.005675      0.039703     -0.085061
Li	      6.24532      6.29610      8.22378        -0.062025      0.037472     -0.033118
V	      0.15448      4.14356      4.11097        -0.109152     -0.093735      0.294914
Fe	      6.26320     10.39060      8.26877         0.068484      0.210808     -0.043221
Fe	      4.13435      0.04007      4.07880        -0.053057     -0.130142      0.024383
Fe	      4.15579      6.22231      2.07824         0.044350      0.042227      0.002079
Co	      4.15271     10.41763      6.20826        -0.135439      0.071066      0.096707
Co	      8.29403      6.33013      6.24353         0.077136      0.268235     -0.098138
Co	      6.23719      4.22264      6.22817        -0.033999      0.105988     -0.181720
Co	      8.30566      6.32668     10.31530        -0.044857     -0.030480      0.106787
Ni	      2.08612      8.33245      6.18530         0.071660     -0.037245     -0.016543
O	      2.00406      1.89622      2.02617         0.032616      0.200810      0.118982
O	      4.21321      4.22807      2.11032        -0.240634     -0.106738     -0.200080
O	      4.19564      2.00077      4.33871        -0.022731      0.068821      0.146544
O	      6.32308      4.17034      4.10442        -0.108833     -0.022513      0.029781
O	      6.17968      2.12132      6.27285        -0.155792      0.294392      0.031074
O	      8.23116      4.10207      6.19677        -0.055568      0.083940     -0.007357
O	      1.93793      4.22629      4.14571         0.148470     -0.008593     -0.001096
O	      4.17054      6.47210      4.10386        -0.090231     -0.090182      0.045586
O	      4.37369      4.20930      6.19457         0.127753     -0.149625      0.076928
O	      6.39036      6.18976      6.24749         0.052974     -0.374625      0.120526
O	      6.30456      4.08674      8.43000        -0.003301      0.072034      0.046154
O	      8.41396      6.26121      8.23408        -0.093573     -0.025342     -0.163957
O	      2.00108      6.29952      6.17788         0.139760     -0.127779      0.023014
O	      4.14866      8.38479      6.00978         0.082856     -0.114505     -0.248806
O	      4.08162      6.33289      8.33421         0.167064      0.014791     -0.125283
O	      6.23833      8.58574      8.24784         0.001753     -0.454654     -0.002730
O	      6.18907      6.09225     10.29692         0.173762      0.198454      0.095601
O	      8.48346      8.38019     10.36037        -0.041519      0.070169     -0.116639
