# total energy = -198.01742459 eV
 
CRYSTAL
PRIMVEC
0.005249 6.198903 6.217250 
6.347347 -0.030978 6.252228 
4.231348 4.155447 -0.020003 
PRIMCOORD
36 1
Li	      6.24968      0.12481      6.28074        -0.083822      0.044544      0.063115
Li	      8.26659      2.10249      6.17438        -0.040874      0.085024      0.002985
Li	      8.60431     10.19985     10.45437         0.066132      0.006922      0.123143
Li	      6.41401      2.08732      4.26548        -0.006610      0.035656      0.073312
Li	      6.33662      1.99287      8.15959         0.000014      0.008220     -0.006945
Li	      4.21012      4.18201      4.13099        -0.017660      0.008824     -0.002680
Li	      4.41110      2.04934      6.28371        -0.004441     -0.008026     -0.001889
Li	      6.33544      3.99265      6.30795         0.012602     -0.013123      0.021708
Li	      4.21038      4.16123      8.32708         0.029667     -0.023004      0.004413
V	      2.33249      1.90639      4.16891         0.151953      0.232850      0.202484
Fe	      8.45656      4.13698      8.21468        -0.046656     -0.192105      0.245441
Fe	      8.39979      6.35512     10.41027         0.192671     -0.103678      0.156659
Fe	      4.21451      6.13953      6.22501         0.123102      0.089060     -0.237193
Cu	      6.26256      4.12675      2.02475        -0.103834      0.044925     -0.011825
Cu	      6.40990      6.23125      8.34670        -0.063855      0.017422      0.040653
Ni	      4.24670      8.27185      8.23779        -0.116576      0.101588      0.028858
Ni	     10.56078      8.27368     10.37652        -0.031468     -0.083386     -0.001438
Ni	      2.14285      4.13070      6.22223         0.038914     -0.146768     -0.169577
O	      6.28395      8.36891      8.24973         0.209797     -0.413243      0.138899
O	      2.07512      1.97658      2.24701        -0.066417      0.225051     -0.194429
O	      3.97835      4.08718      2.06644         0.517819      0.066182     -0.019313
O	      4.07410      2.01366      4.13416         0.003792     -0.041003      0.006512
O	      6.31818      4.29322      4.02984        -0.046262     -0.193082     -0.072137
O	      6.31141      2.08703      6.22806        -0.023350     -0.047610     -0.030840
O	      8.44515      4.10930      6.42292         0.006853     -0.028448     -0.414183
O	      2.07340      3.96516      4.03077         0.090499     -0.042137      0.053904
O	      4.17355      6.21242      4.27143        -0.111219     -0.124617     -0.186261
O	      4.20419      4.30511      6.21883         0.056358     -0.297618      0.010560
O	      6.34790      6.22695      5.95234        -0.074297     -0.048203     -0.066799
O	      6.53742      4.16457      8.33193        -0.350945      0.233670      0.036267
O	      8.35928      6.18296      8.40496        -0.092432      0.082230     -0.104388
O	      2.17510      6.16997      6.25681        -0.092907      0.148655      0.065762
O	      4.31690      8.04825      6.19749        -0.032908      0.183271      0.017422
O	      4.48338      6.22697      8.14518         0.140780     -0.107235      0.282708
O	      6.45775      6.15543     10.49255        -0.097335      0.150208     -0.059756
O	      8.52123      8.23725     10.36839        -0.137082      0.148984      0.004851
