# total energy = -197.42950484 eV
 
CRYSTAL
PRIMVEC
-0.082285 6.463916 6.020083 
6.342646 -0.067281 6.006419 
4.179272 4.247949 0.005345 
PRIMCOORD
36 1
Li	      2.13630      0.05926      2.03946         0.007184      0.000303      0.006192
Li	      6.28113      2.23533      8.10446        -0.036867      0.073528      0.044867
Li	      8.28803      4.21709      8.03488        -0.068426      0.022492     -0.008722
Li	      4.07633      4.32178      4.00094        -0.016292      0.003305     -0.062505
Li	      6.31261      4.24695      6.09221         0.062896     -0.038632      0.044039
Li	      0.02064      4.23109      3.92509        -0.055047     -0.024649     -0.079314
Li	      8.38857      6.37434      9.87569        -0.033693      0.057971      0.007861
Li	      4.31212      4.15046      8.02976         0.061820     -0.031073      0.046123
Li	      6.34241      6.23776      8.05918        -0.016770     -0.099996      0.005612
V	      0.09857      0.10543      0.10402         0.007531      0.002762     -0.000245
Fe	      4.17862      6.38644      9.93372         0.029931     -0.061502     -0.078779
Fe	      6.27392      8.59135      9.88632         0.077865      0.003105      0.074925
Fe	      4.16895      6.26446      6.01596        -0.281563      0.035273      0.279053
Cu	      6.17691      6.35054      3.98755        -0.097581     -0.082977     -0.146095
Cu	      8.34280      6.41815      6.08378        -0.101107      0.051671      0.016874
Cu	      6.21475      8.50877      6.04712        -0.041364      0.125257      0.092790
Ni	      2.10645      2.17300      0.03682         0.077736     -0.027918      0.000294
Ni	      4.16238      2.12369      2.03536         0.115103      0.005248      0.013134
O	      6.29989      4.22772      7.99599        -0.013296      0.005787     -0.056105
O	      8.35027      6.33015      7.92597         0.005100      0.038794      0.055518
O	      2.16634      2.15203      2.10098        -0.100060      0.006068      0.025775
O	      4.19756      4.23429      1.86984         0.021915      0.097697     -0.011711
O	      4.34098      2.02044      4.10733        -0.115964      0.077767      0.152906
O	      6.41643      4.15740      4.04027        -0.095426      0.147603      0.049481
O	      6.36897      1.90412      5.98795        -0.058869      0.154616      0.065229
O	      8.68113      4.11812      5.96107        -0.015707      0.038852      0.111990
O	      2.08213      4.10762      4.17898        -0.047666     -0.104487     -0.037835
O	      4.08461      6.37704      4.13722        -0.082320     -0.073314     -0.284186
O	      3.92190      4.30574      6.06385         0.083157     -0.274499     -0.025175
O	      6.12295      6.21825      5.86789         0.312860     -0.134486      0.060279
O	      1.87750      6.60063      5.97573         0.072125      0.015640      0.028934
O	      4.21971      8.73145      6.00021         0.041427      0.049061     -0.117554
O	      4.13032      6.52549      7.95142         0.014005     -0.034069     -0.030111
O	      6.13140      8.60084      7.96454         0.032534      0.019304     -0.213091
O	      6.21366      6.52006     10.09126         0.142162     -0.014236      0.026784
O	      8.23949      8.63937     10.03232         0.112669     -0.030267     -0.057233
