# total energy = -197.76831345 eV
 
CRYSTAL
PRIMVEC
-0.006350 6.280558 6.217695 
6.172893 -0.010194 6.221243 
4.116214 4.190258 -0.007661 
PRIMCOORD
36 1
Li	      2.00328      6.29348      8.22032         0.019082     -0.015536      0.057784
Li	      4.07765      2.16955      1.97972         0.001283      0.030746      0.066783
Li	      4.14618      6.23521      2.12078        -0.017296     -0.009348      0.003470
Li	      4.07386      4.34553      4.17786         0.036093     -0.003837      0.019029
Li	      4.08652      2.15355      6.25630         0.040946      0.034309     -0.002509
Li	      6.12229      4.18146      6.23197        -0.025061     -0.060767     -0.002321
Li	      4.15328      8.24503      4.20375        -0.018192      0.030907     -0.014364
Li	      2.19598      6.19864      4.21136         0.041910     -0.001051     -0.028536
Li	      4.10296      6.27660      6.10981         0.011316     -0.044237      0.026630
V	      4.05520      0.07202      4.15105         0.014249     -0.004723     -0.150336
Fe	      6.18511      2.09302      4.16445        -0.119900      0.020115     -0.180384
Fe	      2.06386      4.20774      2.18317        -0.290053      0.137795     -0.078395
Fe	      4.19494      4.08082      8.23270         0.079424     -0.072813      0.187382
Ni	      4.13509     10.45399      6.23165        -0.042917      0.077866     -0.010139
Ni	      2.10988      8.29057      6.23965        -0.035602     -0.016558      0.043546
Ni	      6.09622      6.33627      4.15387         0.161470     -0.053529     -0.048783
Ni	      2.04060      4.22223      6.21195         0.094775      0.053350     -0.028303
Ni	      6.17332      6.26880      8.21972        -0.017687     -0.033823      0.015956
O	      4.22062      6.26622      4.14314        -0.175590      0.033638      0.017596
O	      2.03840      2.24368      2.09073         0.004801     -0.269210     -0.006043
O	      3.92200      4.21324      2.01815         0.437854      0.000063     -0.049339
O	      4.08201      1.91611      4.14217        -0.008621     -0.054186      0.000495
O	      6.30092      4.13532      4.13362        -0.031313      0.036383      0.011806
O	      6.24677      2.00951      6.07970        -0.095825      0.016700      0.167304
O	      8.24217      4.08589      6.02789        -0.064032      0.055792     -0.001832
O	      2.07786      4.18013      4.11169         0.039681      0.090932      0.171300
O	      4.05509      4.18232      6.35265         0.021052      0.048646     -0.294820
O	      6.13685      6.43878      6.15950         0.006019     -0.114456      0.016220
O	      6.22210      4.23322      8.23618        -0.085418     -0.050861     -0.020745
O	      8.20627      6.23130      8.29221         0.081640      0.105934     -0.011084
O	      2.02861      6.24285      6.24240         0.083911     -0.033373      0.004868
O	      4.13682      8.45196      6.23148         0.021791     -0.048430     -0.016110
O	      4.13546      6.15576      8.50378        -0.086405      0.069504      0.061852
O	      6.25067      8.31694      8.36934        -0.121074      0.094767     -0.007698
O	      5.99312      6.34596     10.34518        -0.030102     -0.086960      0.051539
O	      8.20087      8.45299     10.32318         0.067791      0.036252      0.028179
