# total energy = -206.18820167 eV
 
CRYSTAL
PRIMVEC
0.025845 6.198906 6.566551 
6.032773 0.005873 6.587685 
4.027013 4.153156 -0.002806 
PRIMCOORD
36 1
Li	      2.13636      8.18375      6.57967         0.032510     -0.074595     -0.083328
Li	      3.99991      2.14272      2.20655         0.013450      0.008819      0.028914
Li	      5.99163      2.04066      4.41957        -0.038972     -0.027108      0.048015
Li	      4.04290      6.12410      2.33983        -0.029320      0.011722      0.044661
Li	      8.11056      4.23899      8.75188        -0.082782      0.048137      0.014312
Li	      4.00241      4.15925      4.27800         0.040018     -0.000623     -0.037867
Li	      7.97506      6.18704      6.58586        -0.038793     -0.018181     -0.004073
Li	      2.04078      6.19710      4.37833         0.004061      0.002581     -0.006447
Li	      4.02023      6.26494      6.46107         0.011207      0.020532     -0.100472
V	      5.99876      3.91446      6.57066        -0.046975      0.223850     -0.011155
Fe	      4.09765     10.25168      6.66026        -0.216776      0.122717     -0.014406
Fe	      4.06578      6.21572     10.94320        -0.141135      0.152568      0.138375
Fe	      2.00711      2.15320      4.35323         0.021027     -0.174043      0.133273
Fe	      8.05714      8.21572      8.82726         0.234133     -0.019081     -0.002485
Co	      2.04489      4.12957      6.53138         0.008205     -0.015931     -0.184899
Cu	      2.00150      0.07346      2.12475         0.046052      0.111196      0.041595
Cu	      4.05434      8.29783      4.43216         0.024083     -0.129913     -0.084851
Cu	      6.04568      6.27789      8.69554        -0.020966     -0.147062     -0.058682
O	      2.02876      6.07558      6.52425         0.169639     -0.046127     -0.056868
O	      6.10168      8.27556      8.51765        -0.148046      0.121354     -0.032904
O	      2.01878      2.04191      2.47279         0.019687     -0.184407     -0.289543
O	      4.07888      4.19466      2.04793        -0.062177      0.002989      0.081558
O	      3.91990      1.99385      4.37605         0.333243      0.001259     -0.002860
O	      6.02139      4.14116      4.69410         0.011400      0.015986     -0.019340
O	      6.04760      2.17200      6.59137         0.002742     -0.357560      0.012204
O	      7.93090      4.11085      6.52517         0.089673     -0.033131      0.013034
O	      2.01220      4.14887      4.58462         0.063985      0.236730      0.123220
O	      4.15628      6.32028      4.34225        -0.354536      0.003708      0.001748
O	      4.13069      4.12240      6.63123         0.000825      0.022437      0.018901
O	      6.03648      6.30875      6.32465         0.000811      0.144388      0.244919
O	      6.04199      4.28740      8.42001         0.018709     -0.044089     -0.043889
O	      7.98877      6.28892      8.78310         0.071806     -0.037048     -0.034672
O	      4.15362      8.30638      6.66193        -0.012146     -0.045971      0.164852
O	      4.03518      6.12572      8.90098        -0.112599      0.119323     -0.129978
O	      5.99461      6.18592     11.17414         0.114512      0.063468      0.161331
O	      8.09891      8.33938     10.83754        -0.026553     -0.078895     -0.072196
