# total energy = -205.02937176 eV
 
CRYSTAL
PRIMVEC
0.010019 6.232188 6.188844 
6.288866 -0.012696 6.211760 
4.186440 4.164124 -0.002628 
PRIMCOORD
36 1
Li	     10.29710      4.20419      6.16140        -0.118473      0.132520     -0.046760
Li	      8.29028      2.22075      6.17323        -0.185421      0.158818     -0.094916
Li	      8.40688      4.22020      4.26395         0.046326     -0.079955     -0.007758
Li	      6.28843      2.03296      4.31350         0.067250      0.003601      0.144551
Li	      8.35267      4.15311      8.06486        -0.020796      0.002080     -0.149075
Li	      2.16613      2.10283      4.22341         0.008162     -0.081015     -0.173687
Li	      4.20667      2.02193      6.09653         0.137605     -0.197762     -0.097123
Li	      6.42523      4.10554      6.14202         0.223027     -0.175366     -0.063381
Li	      4.22150      4.11691      8.22849         0.033263      0.055777      0.266568
V	      6.30395      4.18101      2.15541         0.145396      0.061898      0.610459
Fe	      4.17938      2.09721      2.09070        -0.504447      0.111680      0.229510
Fe	      6.21411      2.15668      8.13922         0.201226     -0.216114      0.412303
Fe	      8.35655      6.28225     10.39362         0.014652      0.458864     -0.209361
Fe	      6.37215      6.12843      8.23072        -0.040551     -0.176393      0.755416
Co	      6.31292      8.30836      6.22022         0.130610      0.060971     -0.010079
Ni	      4.17843      8.33996      4.17802        -0.384123      0.020030     -0.162946
Ni	      4.23207      6.18968      6.18125        -0.046706      0.180565     -0.015153
Ni	      4.16258      4.12516      4.17319         0.306880     -0.006877     -0.514145
O	      8.37185      4.15207      6.15037        -0.017013      0.103092      0.158030
O	      2.10542      1.90219      2.02442         0.061243      0.546676     -0.191976
O	      4.34867      4.16776      2.06110        -0.497605     -0.073907     -0.086511
O	      4.16755      2.12826      3.95346         0.030169      0.027717      0.598201
O	      6.27986      4.10149      3.92434        -0.060580     -0.037713      0.358881
O	      6.25063      2.08841      6.33173        -0.079993      0.059903     -0.682605
O	      2.07645      4.27103      4.30359         0.013159     -0.632666      0.726408
O	      4.12171      6.23323      4.04792         0.293376     -0.187334      0.268989
O	      4.04466      4.19133      6.16518        -0.797618     -0.275693      0.257197
O	      6.27141      6.35152      6.27427         0.141741      0.572943     -0.325487
O	      6.29288      4.15726      8.31507        -0.053669      0.130516     -0.174779
O	      8.38160      6.19281      8.35390        -0.150675     -0.005586     -0.170088
O	      2.14710      6.08549      6.30240        -0.021884     -0.670545     -0.271899
O	      4.33900      8.26254      6.27746         0.779154      0.088660     -0.327984
O	      4.13891      6.27648      8.26093         0.482466     -0.035509     -0.209518
O	      6.25576      8.34083      8.16350         0.154850     -0.359055     -0.679594
O	      6.39026      6.22405     10.24484        -0.358526     -0.035881     -0.129298
O	      8.42599      8.15126     10.43498         0.067522      0.471064      0.007610
