# total energy = -209.23464098 eV
 
CRYSTAL
PRIMVEC
0.034541 6.386714 6.367043 
6.146175 0.027189 6.374391 
4.092900 4.257763 0.023300 
PRIMCOORD
36 1
Li	      0.08002      6.39248      6.32939        -0.029514     -0.017923     -0.160015
Li	      8.19841      8.49727     12.68585         0.034919     -0.007407     -0.015870
Li	      8.23946     10.57661     10.61756         0.177436     -0.043180     -0.003626
Li	      6.17241      2.20271      8.39075         0.037030      0.111879      0.006403
Li	      6.11468      4.21769      6.28803         0.062406      0.048391      0.084240
Li	      2.07358      6.43588      4.34853        -0.100101      0.101407      0.010022
Li	      2.10654      4.31528      6.37571        -0.069179     -0.019385      0.005472
Li	      8.23580      8.54123      8.56625         0.067437      0.004270      0.073086
Li	      6.14020      6.43920      8.60934         0.014881     -0.062620      0.131894
V	      8.10068      4.48304      8.41677        -0.575089     -0.096818     -0.260634
Fe	      6.16609     10.61260      8.48962         0.114816      0.152869     -0.259965
Fe	      4.14049      8.47709      8.45912        -0.180857     -0.050467     -0.146839
Fe	      6.26073      8.45911     10.70440         0.166337     -0.608540     -0.068816
Fe	      4.12343      6.38123      6.37392         0.163783      0.220742     -0.094873
Co	      2.08188      2.14245      4.25822        -0.158483      0.329529     -0.448560
Co	      6.12295      4.43268     10.71155         0.259656     -0.776767     -0.210876
Cu	      4.07895      4.30470      4.26974        -0.071618      0.119071      0.065030
Cu	      4.08969      2.28181      6.30448        -0.110969     -0.029080      0.040905
O	      8.21802      6.23827      8.48133         0.086875      0.005182      0.036267
O	      2.06478      2.10342      2.31366         0.045673     -0.104332      0.147456
O	      4.01467      4.17979      2.23373         0.009935     -0.046911      0.020864
O	      4.05508      1.95195      4.14515        -0.296865      0.085949     -0.042128
O	      6.06645      4.19616      4.15592         0.050336      0.689849      0.159112
O	      6.00816      2.15499      6.24951         0.052091      0.092874      0.123494
O	      8.20595      4.12237      6.71078        -0.018676     -0.024989      0.022539
O	      2.09782      4.26655      4.05387         0.114929     -0.891211      0.317358
O	      4.22651      6.66356      4.35439         0.197573     -0.118520      0.128036
O	      4.11130      4.41560      6.25271         0.003700     -0.032816     -0.055450
O	      6.23914      6.41279      6.16179        -0.068152      0.006644      0.083807
O	      6.30432      4.29052      8.59441         0.373067      0.083093     -0.087510
O	      2.11513      6.41957      6.52078        -0.004715     -0.058613      0.017828
O	      4.15938      8.45949      6.44962         0.009078     -0.069602      0.274465
O	      4.11510      6.43327      8.40190        -0.078380      0.000132     -0.010398
O	      6.12913      8.56134      8.62596         0.029780      0.074910      0.041977
O	      6.18149      6.30723     10.66378        -0.051468      0.904620      0.077597
O	      8.19717      8.52077     10.63727        -0.257676      0.027770     -0.002293
