# total energy = -208.37220644 eV
 
CRYSTAL
PRIMVEC
0.023462 6.212873 6.328292 
6.200034 0.043957 6.307645 
4.154480 4.149362 0.008242 
PRIMCOORD
36 1
Li	      4.12795      4.05523      0.15091         0.015307      0.004695      0.016025
Li	      2.16488      2.13805      0.09977         0.018429     -0.048095      0.036867
Li	      4.06432      2.10674      2.03629         0.013391      0.009007     -0.000633
Li	      0.07795      2.05940      2.12271        -0.015862      0.017228     -0.037643
Li	      8.21659      4.19117      8.32952         0.005221      0.001995     -0.024012
Li	      2.00722      2.12774      4.06739         0.011887      0.035779     -0.030634
Li	      8.24542      6.20328      6.37661         0.020556     -0.020377      0.013021
Li	      4.23160      8.15089      4.20231        -0.010470      0.008556      0.020047
Li	      4.14811      6.28596      6.24760        -0.041016      0.021717     -0.078583
V	      6.20029      2.09460      4.41389         0.085323     -0.050027     -0.075210
Fe	      8.31832      4.22502      4.32223        -0.029234     -0.068396     -0.066400
Fe	      4.11692      4.21880      4.10590         0.048224     -0.107677      0.107956
Fe	      6.15422      8.26600      6.27382         0.195679      0.063502      0.037853
Fe	      4.21782      4.13302      8.38990        -0.094072     -0.000695      0.097443
Co	      2.05901      0.08966      2.03745         0.146413      0.073504      0.074684
Co	      2.10358      6.18904      4.22651         0.054005      0.001997      0.019200
Ni	      6.22732      4.26751      6.36048         0.017478     -0.003332     -0.043461
Ni	      6.21545      6.27759      8.42160        -0.028847      0.006349     -0.026222
O	      2.08865      1.91686      2.05934         0.014756     -0.066561      0.004558
O	      4.30666      4.15340      2.16471         0.048439     -0.045003     -0.096153
O	      4.26850      2.09018      4.19602        -0.065156      0.123102     -0.000261
O	      6.22080      4.12655      4.29456        -0.032920      0.025508     -0.038189
O	      6.22179      2.14601      6.16120        -0.005547     -0.083206      0.129221
O	      8.26641      4.18892      6.22531         0.098939     -0.009742      0.114812
O	      2.13092      4.23815      4.19118        -0.065431     -0.029556      0.005197
O	      4.02107      6.14647      4.21433        -0.010359      0.131101     -0.019991
O	      4.04753      4.11860      6.35236        -0.005555      0.047632     -0.099303
O	      6.21067      6.35894      6.37713        -0.009560     -0.094943     -0.079571
O	      6.15676      4.24229      8.36459         0.056375     -0.110897      0.062702
O	      8.24942      6.32244      8.59334         0.120565     -0.099109      0.079093
O	      2.08163      6.03009      6.18864        -0.020621      0.204245     -0.121262
O	      4.35969      8.27546      6.30444        -0.342283     -0.003220      0.047401
O	      4.08559      6.17546      8.57902        -0.205734      0.033789      0.058730
O	      6.30713      8.43547      8.53114        -0.030109      0.071807     -0.084179
O	      6.25750      6.36329     10.49447         0.010442     -0.025819      0.022590
O	      8.23264      8.25131     10.52247         0.031349     -0.014858     -0.025694
