# total energy = -211.42002520 eV
 
CRYSTAL
PRIMVEC
0.031199 6.121112 6.380350 
6.062503 -0.013143 6.425402 
4.046843 4.115502 -0.013522 
PRIMCOORD
36 1
Li	      2.18069      6.05324      8.50523        -0.031506      0.083209      0.010984
Li	      4.13428      8.11876      8.57579        -0.096180      0.055656      0.060371
Li	      4.09951      6.08717     10.52945        -0.031733      0.028123     -0.061452
Li	      4.03351      4.13435      4.45482        -0.036448      0.004354     -0.060760
Li	      4.00609      2.15936      6.43634         0.072778     -0.063665     -0.034146
Li	      5.95738      4.14356      6.36590         0.061582     -0.046061     -0.026760
Li	      2.04973      6.11847      4.26894         0.060877     -0.057334      0.017946
Li	      4.08960      6.01520      6.48009        -0.036788      0.085290      0.036789
Li	      4.02484      4.19654      8.35267         0.047162     -0.022410     -0.007722
V	      6.18827      6.08395      4.34177        -0.341037      0.222778     -1.004785
Fe	      6.08132      6.10146     12.77465        -0.162269     -0.016113      0.238477
Fe	      2.10908      8.11837      6.36719         0.051281      0.080193      0.288924
Fe	      6.06590      2.17113      4.22585        -0.166719      0.013062      0.496424
Fe	     10.00949      6.12961      8.54976         0.188601     -0.023637     -0.045949
Co	      8.06601      4.06608      8.54311         0.059635     -0.299672      0.093820
Co	      6.07415      4.07980     10.64841         0.193404     -0.150410     -0.013287
Co	      6.06122      6.14318      8.56511         0.143454     -0.079671      0.174630
Cu	      2.11960      4.09154      6.43357        -0.185656      0.192157     -0.096618
O	      3.99995      4.09339      6.40008         0.195496      0.072032      0.128101
O	      1.97276      2.11296      2.13799         0.024344      0.018601     -0.106408
O	      3.91887      4.16869      2.02345         0.078429     -0.096452     -0.005654
O	      3.97161      2.06636      4.26847         0.534629     -0.018670      0.023218
O	      6.06321      4.15289      4.23219        -0.028075     -0.176222     -0.014601
O	      6.09503      2.01053      6.41310        -0.117287      0.067455     -0.090251
O	      8.10670      3.98785      6.61174        -0.088746      0.121299     -0.075214
O	      1.92871      3.99989      4.03694        -0.060511      0.031062     -0.026910
O	      4.16003      6.26387      4.09788        -0.136658      0.026411      0.088040
O	      6.08602      6.20815      6.15889         0.023119     -0.178588      0.808560
O	      6.11304      4.09958      8.69442        -0.148247      0.252704     -0.042756
O	      8.02813      5.98943      8.53629        -0.286448      0.189967     -0.026853
O	      2.01333      6.14103      6.45793         0.157796     -0.108564      0.044246
O	      4.12929      8.20885      6.16895         0.034086     -0.142507      0.058258
O	      4.26006      6.15414      8.51281         0.028416     -0.090425     -0.084507
O	      6.11085      8.06871      8.72579         0.124762     -0.094963     -0.357381
O	      6.08243      6.05710     10.76616        -0.018234      0.125320     -0.205934
O	      8.14690      8.16758     10.81828        -0.107305     -0.004307     -0.180843
