# total energy = -203.10459722 eV
 
CRYSTAL
PRIMVEC
0.008843 6.235293 6.370347 
6.202928 0.033773 6.345580 
4.129037 4.134197 0.028844 
PRIMCOORD
36 1
Li	      2.02915      0.03058      2.07997         0.021634      0.023361     -0.054177
Li	      4.09557      2.12115      2.09937        -0.071630      0.040355     -0.007115
Li	      2.00946      4.13842      2.20935        -0.019940     -0.053912      0.067314
Li	      6.11517      6.29984      4.28249        -0.016709      0.031125      0.069865
Li	      6.19060      4.24017      6.44188         0.023303      0.103863     -0.045815
Li	      0.07524      4.07245      4.18364         0.021742     -0.021597      0.031655
Li	      2.13149      6.16431      4.23901        -0.011254      0.002217      0.115659
Li	      4.19317      6.23004      6.30581         0.013378      0.046620     -0.098457
Li	      6.24730      6.20138      8.44739        -0.011620     -0.034115     -0.023169
V	      4.11117      6.30605     10.51402        -0.000017     -0.022905      0.114725
Fe	      2.11311      8.23190      6.47427         0.107338     -0.052203     -0.206639
Fe	      6.23499      8.30113     10.53854         0.023079      0.016711      0.100367
Fe	      4.04265      4.30922      4.20965         0.066626     -0.233924      0.065870
Fe	      6.15648      8.25827      6.38334        -0.198612      0.244200      0.032597
Cu	      4.19399      4.12640      8.42881        -0.051160      0.216003     -0.067564
Ni	      4.12781      4.10853      0.08259         0.065093     -0.073764      0.020156
Ni	      4.13304      6.23892      2.18213         0.128340     -0.049756     -0.031919
Ni	      8.24486      6.22243      6.42648        -0.070237     -0.094438     -0.107480
O	      6.12751      4.03710      8.45900         0.030742      0.122932     -0.026461
O	      1.93200      2.11328      1.99648         0.062311      0.033334      0.309828
O	      4.11595      4.28680      2.23619        -0.016716     -0.129317     -0.097412
O	      4.16719      1.97864      4.21888        -0.037090      0.147570     -0.092924
O	      6.33367      4.11005      4.26718        -0.108869      0.034366     -0.040759
O	      6.22313      2.04413      6.23099        -0.011352      0.124877     -0.005370
O	      8.28130      4.13351      6.20423        -0.097757     -0.045402     -0.081189
O	      2.10532      4.16297      4.33801        -0.030749      0.024294     -0.122728
O	      4.16405      6.17241      4.24259        -0.018276      0.210424      0.039710
O	      4.08670      4.14608      6.19723         0.186146      0.108891      0.411355
O	      6.23010      6.34681      6.45254        -0.051139     -0.332798      0.019317
O	      8.41757      6.29251      8.45226        -0.110937      0.014634      0.126919
O	      2.05419      6.23163      6.38990         0.069656     -0.021850      0.015500
O	      4.13047      8.30987      6.47902        -0.042240     -0.066029      0.072942
O	      4.15963      6.17490      8.73931         0.020337     -0.118632     -0.076572
O	      6.33200      8.31399      8.56338         0.048374     -0.010412     -0.055727
O	      6.03532      6.30338     10.62161         0.004743     -0.066998     -0.040904
O	      8.24891      8.46525     10.76604         0.083463     -0.117724     -0.331399
