# total energy = -202.72321380 eV
 
CRYSTAL
PRIMVEC
0.007192 6.132181 6.414717 
6.272044 -0.008107 6.429167 
4.172574 4.089597 0.003665 
PRIMCOORD
36 1
Li	      2.13919      8.11619      6.30739         0.007545     -0.008545     -0.042839
Li	      2.25291      6.05594      8.50467         0.029032      0.059685     -0.065553
Li	      4.22239      8.13025      8.56271        -0.007822     -0.004406     -0.031802
Li	      8.35662     10.12004     10.61801         0.111278     -0.039509      0.021086
Li	      6.36829      8.19353     10.66978        -0.020667     -0.041245      0.196131
Li	      4.16829      6.15930      2.20408        -0.035494     -0.026047     -0.076988
Li	     10.31518      8.12566     10.76355        -0.023843      0.110022      0.040068
Li	      2.17381      6.21161      4.29571        -0.010788     -0.026955      0.012569
Li	      4.10497      6.18307      6.44585        -0.031522      0.086143      0.062624
V	      2.18743      4.02006      2.12721         0.084124      0.171365     -0.552664
Fe	      6.38060      6.11975     12.65688        -0.227566      0.398096     -0.050975
Fe	      6.22566      6.12991      4.34528         0.053620      0.110690     -0.074610
Fe	      6.22522      3.98384      6.42899         0.081320     -0.014699      0.256573
Fe	      6.20038      6.18625      8.76743         0.116891     -0.461324      0.163981
Cu	      4.20277      4.11347      4.28972        -0.018848      0.031939     -0.073634
Cu	      6.23655      8.22773      6.49414        -0.053302     -0.015642      0.366531
Ni	      8.33857      6.12178      6.41547         0.150194     -0.154263      0.076635
Ni	      8.34570      8.16562      8.66246         0.255185      0.015516      0.029155
O	      8.38358      8.14564     10.52931        -0.068335      0.005533      0.213679
O	      2.08342      2.22105      2.19998        -0.003707     -0.129149      0.030452
O	      3.96217      4.14578      1.88904        -0.146075     -0.064034      0.238818
O	      4.02587      2.18067      4.35244         0.269264      0.218442     -0.144137
O	      6.19850      4.14494      4.42056        -0.291536     -0.128025     -0.164568
O	      6.23810      2.02024      6.37751        -0.005274      0.175669      0.041335
O	      8.26822      4.06066      6.56596         0.036825     -0.068680     -0.019922
O	      2.17045      4.09978      4.00259         0.215747      0.069625      0.449506
O	      4.29853      6.04799      4.28092        -0.315140     -0.265353     -0.071967
O	      4.19925      4.05380      6.70468        -0.165795      0.163240     -0.184954
O	      6.27682      6.15763      6.41961        -0.114654      0.067563     -0.063367
O	      6.37388      4.12552      8.46650         0.073708     -0.073011      0.034162
O	      8.26477      6.02262      8.54138         0.061940     -0.037700      0.019264
O	      2.03535      6.09098      6.41879         0.419334      0.017024      0.079127
O	      4.24856      8.31139      6.35588         0.071207     -0.727103      0.140807
O	      4.27993      6.06345      8.59897        -0.284440      0.088121     -0.000304
O	      6.32711      8.09751      8.66926        -0.229123      0.446814     -0.627572
O	      6.23452      6.12108     10.72732         0.016718      0.050201     -0.226645
