# total energy = -138.29898342 eV
 
CRYSTAL
PRIMVEC
2.052681 2.102087 0.002927 
4.164001 -4.253671 8.320443 
4.161621 -6.366608 -2.070717 
PRIMCOORD
24 1
Li	      5.06292     -5.09978     -1.19967         0.033298     -0.013527      0.018020
Li	      7.39944     -7.65706      3.30029        -0.031048      0.017489     -0.014464
Li	      5.22406     -3.21242      0.90624         0.023120     -0.000435      0.001208
Li	      3.07615     -3.17842      3.26562        -0.021281      0.001745     -0.002142
Li	      7.30838     -5.31774      5.24847        -0.008719      0.018929     -0.009083
Li	      5.15672     -5.32603      7.24332         0.004135     -0.016131      0.007978
Mn	      5.22693     -5.23949      3.16364         0.026254     -0.005422     -0.025483
Mn	      7.25750     -5.32733      1.05206         0.001203     -0.001449     -0.006665
Mn	      3.07397     -1.15052      1.00782        -0.030136      0.010680      0.025313
Ni	      3.10351     -3.22852     -1.08124        -0.024643      0.040412      0.052095
Ni	      9.33954     -7.45423      5.21162        -0.000228     -0.001204      0.013031
Ni	      5.19720     -3.16160      5.25276         0.029534     -0.043215     -0.044367
O	      5.24644     -5.26842      5.03503         0.081404     -0.089795     -0.074828
O	      2.96272     -3.10044      1.05849        -0.029901      0.041410      0.077823
O	      5.22513     -2.99691      7.26041         0.077857     -0.112193      0.121438
O	      5.14650     -3.17106     -1.10041         0.107690     -0.088253      0.095767
O	      2.96796     -1.13194      3.01026         0.033627     -0.008359     -0.039303
O	      7.19314     -5.11526      3.06000        -0.025976      0.048864      0.024414
O	      5.33284     -5.25815      1.16123        -0.034966      0.004974      0.039920
O	      7.23964     -7.64702      5.23176        -0.080230      0.110301     -0.128803
O	      5.33812     -3.28945      3.11304         0.033641     -0.042305     -0.079455
O	      3.15426     -3.21925      5.27183        -0.112107      0.089685     -0.095889
O	      7.21856     -5.37539      7.45717        -0.082284      0.090956      0.069554
O	      1.10756     -1.27448      1.11151         0.029756     -0.053157     -0.026079
