# total energy = -201.71699009 eV
 
CRYSTAL
PRIMVEC
0.046287 6.068313 6.259699 
6.461631 0.010151 6.297178 
4.304645 4.066499 0.010274 
PRIMCOORD
36 1
Li	      4.27271      4.05309      0.11512        -0.003226      0.030009     -0.030060
Li	      2.18079      6.09477      8.25885         0.010565     -0.064621     -0.045067
Li	      8.59404      4.06113      4.27091         0.019380     -0.024541      0.008070
Li	      6.44733      2.04886      8.33866        -0.090975      0.045600     -0.036502
Li	      2.22001      3.99044      2.03739        -0.043679      0.097400     -0.020824
Li	      6.58393      4.09989      6.36398         0.001804     -0.041297      0.041467
Li	      6.50635      8.02710      6.32733         0.040660      0.078459     -0.018300
Li	      4.35814      6.11658      6.28329        -0.049760     -0.009435      0.013211
Li	      6.46634      6.08043      8.24790         0.020799     -0.015264      0.052610
V	      6.40668      2.05675      4.19960         0.342048     -0.195538      0.133838
Fe	      4.32715      4.10283      4.19468        -0.101507      0.002284      0.399604
Fe	      6.55385      4.08290     10.42962        -0.154034      0.098993     -0.185544
Fe	      8.63945      6.10984     10.49725        -0.093875      0.119695     -0.408645
Fe	      4.40577      4.15938      8.23610         0.065627     -0.181914      0.064311
Cu	      2.17016      2.08775      0.05183        -0.107750     -0.026607     -0.126110
Cu	      4.27442      8.03125      8.31952         0.194452     -0.199374     -0.041679
Cu	      6.49721      6.03917      4.24145        -0.145592      0.072846     -0.033110
Ni	      8.51108      6.01369      6.40843         0.150714     -0.011255      0.183442
O	      6.54225      6.06312      6.15120        -0.124915      0.022093     -0.043460
O	      4.14279      8.14204      6.07222        -0.039429      0.013782      0.193310
O	      2.30762      1.97252      2.31432         0.249833      0.004860      0.335188
O	      4.29382      3.89370      2.28013        -0.014321     -0.108153     -0.298978
O	      4.58895      2.01398      4.38303         0.018239     -0.131691      0.090143
O	      6.37753      3.92714      4.22321         0.069088      0.102103     -0.013661
O	      6.66989      2.04063      6.10246         0.117839      0.004924      0.132216
O	      8.63796      3.98563      6.34114         0.032378      0.124171     -0.007094
O	      2.12364      4.10568      4.21476         0.065835     -0.174011      0.072924
O	      4.20010      6.06991      4.14686         0.073452      0.032281     -0.025835
O	      4.28527      4.00895      6.27525        -0.038162     -0.043741     -0.314452
O	      6.37796      4.08976      8.49510         0.197935     -0.014572     -0.104511
O	      8.65460      6.23533      8.39933        -0.079722     -0.381174     -0.111793
O	      2.17075      6.26075      6.15070         0.001231     -0.105802      0.295941
O	      4.33707      6.07298      8.30777        -0.036778      0.747906      0.006171
O	      6.47001      8.10964      8.56458        -0.307857      0.016854     -0.227029
O	      6.59670      6.18380     10.44189        -0.095854      0.015461      0.008319
O	      8.53987      8.14285     10.26833        -0.144446      0.099266      0.061887
