# total energy = -202.65040625 eV
 
CRYSTAL
PRIMVEC
-0.059474 6.376238 6.239889 
6.265250 -0.027611 6.208005 
4.155596 4.207928 0.002881 
PRIMCOORD
36 1
Li	      6.25228      2.08606      4.15384         0.005372      0.101158     -0.015547
Li	      6.17386      2.23913      8.35254        -0.064959     -0.028054     -0.081259
Li	      8.16912      4.29046      8.37230         0.029279      0.059741     -0.030203
Li	      6.15849      6.42169      4.18947         0.043388     -0.037896     -0.021286
Li	      6.21244      4.26723      6.41486         0.077892      0.006577      0.073819
Li	      8.31469      6.23006     10.24374        -0.063748     -0.008436     -0.155974
Li	      2.06052      4.20334      6.12216        -0.080645     -0.063931      0.065476
Li	      4.29072      4.13306      8.35084        -0.050911     -0.120453      0.041096
Li	      6.35630      6.18229      8.30152         0.071489      0.042154     -0.002798
V	      6.21476      4.09426      2.14866         0.025378      0.004347     -0.031386
Fe	      6.20127      6.38913     12.36793        -0.054132      0.031204      0.184751
Fe	      8.28299      2.06942      6.17988        -0.141971      0.111103      0.129960
Fe	      4.21216      6.40533     10.35984        -0.252661      0.116467     -0.194339
Fe	      8.22732      6.44164      6.31584         0.471012     -0.171525     -0.015284
Cu	      4.09076      8.45723      8.30765         0.165686      0.029747      0.140034
Cu	      3.98670      4.20834      4.21967        -0.070992     -0.091329     -0.217761
Cu	      4.23029      6.27119      6.17261         0.248789     -0.072695      0.420387
Cu	      6.25577      4.18383     10.29347        -0.236658     -0.048730      0.104520
O	      8.32653      6.34133      8.11681         0.075064     -0.009642      0.780079
O	      6.12224      8.68994      8.25330         0.241565      0.045236     -0.092803
O	      2.17803      1.92422      1.96966        -0.349720     -0.125797      0.035104
O	      4.29619      4.12357      2.09434        -0.094196      0.275254      0.027859
O	      4.14602      2.11869      4.34841         0.045477      0.100376     -0.511470
O	      6.39676      4.20965      3.91799         0.016298     -0.009175      0.199826
O	      6.26018      2.01732      6.24989         0.176278      0.048733     -0.095832
O	      8.39974      4.12143      6.16527        -0.029364      0.079958      0.050764
O	      1.86095      4.23678      4.11627         0.422267     -0.101453      0.114323
O	      4.09468      6.11001      4.26701         0.020040      0.202622     -0.200629
O	      4.20481      4.22817      6.18627        -0.118967      0.108327      0.055691
O	      6.39323      6.30610      6.28655        -1.063306      0.024276     -0.114702
O	      6.23822      4.20245      8.45498        -0.033415     -0.044359     -0.309612
O	      1.90273      6.43314      6.35897         0.231358     -0.092098     -0.180339
O	      4.04046      8.45214      6.04088         0.131803      0.067271      0.156707
O	      3.98795      6.43733      8.23118         0.092014     -0.268047     -0.143773
O	      6.13804      6.52657     10.40092         0.162491     -0.161164     -0.088941
O	      8.38987      8.57073     10.40815        -0.047293      0.000235     -0.076460
