# total energy = -202.62770612 eV
 
CRYSTAL
PRIMVEC
-0.036073 6.232472 6.272108 
6.309240 0.010706 6.225481 
4.214518 4.132799 -0.001470 
PRIMCOORD
36 1
Li	     10.45313      4.23063      6.27382        -0.032192      0.017374     -0.021259
Li	      6.21974      4.20029      2.19197        -0.053218      0.060148      0.098698
Li	      8.34267      4.19175      4.20105        -0.044234      0.054262     -0.004311
Li	      4.25766      6.12517      2.07671        -0.007771     -0.011529      0.020225
Li	      2.18274      4.10995      2.05207         0.029868     -0.001658      0.025693
Li	      2.10068      2.02234      4.10110         0.036668      0.043999     -0.023096
Li	      4.26360      4.17018      4.04527        -0.009377      0.010134     -0.018501
Li	      8.49091      6.11907      6.25045         0.046012     -0.002319      0.018292
Li	      4.17259      6.23134      6.18866        -0.004967     -0.018540     -0.004742
V	      4.22967      4.28647      8.28905         0.040108     -0.035975      0.098308
Fe	      4.05033      2.23062      2.10696         0.075208     -0.257713     -0.219108
Fe	      6.45066      4.15990      6.11451        -0.180059      0.139766      0.209080
Fe	      2.13019      6.18454      4.19368        -0.096411     -0.078009     -0.122001
Fe	      6.23975      8.21709      6.21156         0.043170      0.005905      0.057602
Ni	      8.37619      2.08538      6.26162         0.083000     -0.059293     -0.017644
Ni	      6.26916      2.11141      4.17207        -0.020028     -0.082194     -0.038066
Ni	      4.17663      8.28458      4.22615         0.013775     -0.008169      0.053651
Ni	      6.33471      6.23498      8.32577         0.023678     -0.010727      0.015103
O	      2.17857      2.02689      2.05408        -0.196113     -0.087324      0.075805
O	      4.22621      4.03695      2.06435         0.057592      0.363557     -0.018657
O	      4.25718      2.05615      3.91204        -0.044186     -0.041450      0.316663
O	      6.25481      4.14129      4.23541        -0.006992      0.123573     -0.180114
O	      6.32860      2.17231      6.20437        -0.130404     -0.101199      0.123111
O	      8.36008      4.13506      6.23712         0.105875      0.136706      0.016692
O	      2.00301      4.14181      4.25564         0.151988     -0.045623     -0.108722
O	      3.97988      6.25973      4.17815         0.209726     -0.129023      0.008831
O	      4.14203      4.11103      6.48329         0.031277     -0.028284     -0.084810
O	      6.29744      6.22434      6.30116         0.006432     -0.079679     -0.114856
O	      6.09856      4.17310      8.32312        -0.015709     -0.095359     -0.086985
O	      8.38703      6.37698      8.48684         0.093167     -0.046523     -0.107788
O	      2.08883      6.16315      6.08565         0.028981     -0.005369      0.169903
O	      4.22127      8.26455      6.42207         0.043779     -0.046867     -0.134836
O	      4.21702      6.07504      8.37434        -0.076885      0.111719     -0.021219
O	      6.44873      8.29626      8.30448        -0.009998      0.143216     -0.041278
O	      6.48534      6.23092     10.35875        -0.125941      0.005112      0.127091
O	      8.39802      8.31020     10.32130        -0.065820      0.057355     -0.066755
