# total energy = -206.84337998 eV
 
CRYSTAL
PRIMVEC
0.026140 6.340043 6.144183 
6.271853 0.026035 6.144017 
4.188329 4.233484 0.010401 
PRIMCOORD
36 1
Li	      4.27545     10.45425      6.18497         0.026788      0.054949      0.050151
Li	      2.25697      8.37968      6.16531        -0.052501     -0.024440      0.035302
Li	      2.00531      0.06294      1.93432        -0.014556      0.031877     -0.016089
Li	      4.22106      4.22858      4.08170         0.011504      0.017835      0.020996
Li	      4.18444      2.10665      6.10779         0.039108     -0.008898      0.001323
Li	      6.31136      4.23957      6.13054        -0.016329     -0.065569      0.001874
Li	      4.20244      8.45935      4.26611         0.001740     -0.047952     -0.001084
Li	      6.12531      8.49492      6.12025         0.054994      0.064198     -0.010145
Li	      4.16716      6.54582      6.15000        -0.035918      0.000008     -0.028933
V	      4.11568      4.35717      8.04702        -0.057008      0.008840     -0.188967
Fe	      8.38845      4.22936      4.27655         0.008719      0.026209      0.008063
Fe	      6.28849      2.10230      8.07926         0.171771     -0.252177      0.155518
Fe	      8.38859      4.22763      8.14020         0.024704     -0.087580     -0.067311
Fe	      6.25313      6.33716      4.24635        -0.023452      0.044962     -0.305654
Fe	      2.12135      6.29957      4.25254         0.100851     -0.037826      0.048841
Cu	      6.31820      6.33866      8.09677        -0.069347      0.006094     -0.034801
Ni	      6.27416      2.17316      4.20201        -0.098182      0.111313      0.124116
Ni	      4.20432      8.52237      8.13487         0.131178      0.118827      0.256781
O	      4.21009      8.47292      6.25791         0.044013     -0.041576     -0.575587
O	      2.08917      2.18719      2.12578        -0.238176      0.007550      0.111699
O	      4.12266      4.32562      2.03911        -0.028694     -0.149437      0.040695
O	      4.17837      2.04460      4.00629        -0.029926     -0.018892      0.209958
O	      6.38985      4.29255      4.10929        -0.024224      0.023852      0.003436
O	      6.25848      2.14088      6.24748        -0.043032      0.023494     -0.407734
O	      8.36009      4.27644      6.19112        -0.021044     -0.005738     -0.009121
O	      2.07897      4.22660      3.98963        -0.034594     -0.001182      0.097760
O	      4.19706      6.30635      3.94167        -0.007983      0.027364      0.262867
O	      4.18161      4.21322      6.33446        -0.010686      0.003994      0.144487
O	      6.28185      6.36712      6.12549         0.010488     -0.003838      0.170560
O	      6.15769      4.06166      8.17807        -0.007073      0.390752      0.007959
O	      8.35020      6.41837      8.24965        -0.021297      0.042962     -0.004515
O	      2.15313      6.33544      6.07547         0.000184      0.017118      0.040332
O	      4.31662      6.18103      8.23127        -0.003174     -0.047418     -0.005960
O	      6.48009      8.56316      8.25453         0.154556     -0.142351     -0.068919
O	      6.29654      6.42546     10.11851        -0.021825     -0.067354      0.004928
O	      8.37177      8.48507     10.14371         0.078422     -0.019971     -0.072826
