# total energy = -206.81395795 eV
 
CRYSTAL
PRIMVEC
-0.005989 6.252527 6.286300 
6.322675 0.005495 6.274624 
4.224796 4.170154 -0.005969 
PRIMCOORD
36 1
Li	      4.25065      6.20257     10.41016         0.013572     -0.024316     -0.033169
Li	      2.09461      4.19845      2.33770         0.009640      0.047463     -0.002685
Li	      2.09640      2.35514      4.28831        -0.016256     -0.045173      0.041192
Li	      3.99900      4.13547      4.27895         0.021012      0.083624      0.003127
Li	      0.21426      4.26809      4.28464        -0.026919      0.002565     -0.003236
Li	      2.01881      6.12697      4.28947         0.025935      0.033063     -0.007655
Li	      2.11001      4.18523      6.10247         0.029601     -0.018356      0.162564
Li	      4.17584      6.29438      6.28295         0.008488     -0.022382     -0.018794
Li	      6.21134      6.29184      8.37344        -0.031986      0.019879     -0.062899
V	      4.24147      6.27098      2.39062        -0.069464      0.057615     -0.014261
Fe	      2.12722      6.24630      8.34291        -0.122778     -0.139238      0.122395
Fe	      4.15077      2.06957      2.10514         0.012923      0.067069      0.074407
Fe	      6.33338      8.27599     10.38493         0.038945      0.013677      0.350357
Fe	      4.19578      2.03525      6.20330        -0.094456      0.060528      0.146875
Fe	      6.34835      4.19357      6.17805        -0.029352      0.046630      0.100211
Cu	      8.48650      8.35957     12.43814        -0.015086     -0.021704     -0.085937
Cu	      4.21512      4.19195      8.34938        -0.042972      0.114630     -0.061068
Ni	      6.34105      6.25622     12.50032        -0.036725      0.018260      0.092542
O	      8.22508      8.31937     10.23924         0.810540      0.009880      0.040694
O	      1.99583      2.00056      2.26280         0.129333      0.019570      0.056404
O	      4.29548      4.30930      2.05925        -0.045672     -0.048681      0.057008
O	      4.34230      2.09238      4.17623        -0.589850     -0.004026     -0.035995
O	      6.30818      3.93247      4.17362         0.053032      0.679512     -0.084013
O	      6.39777      2.08958      6.07306        -0.094712      0.128696      1.356299
O	      8.41933      4.16508      6.20794        -0.036376     -0.022964     -0.062494
O	      2.09116      4.21389      4.23939         0.004596      0.060880      0.020392
O	      4.17847      6.28284      4.09435         0.020387      0.046302     -0.037761
O	      4.34255      4.07576      6.38091         0.028849     -0.004870     -0.008915
O	      6.45592      6.13463      6.30661         0.047279     -0.002551     -0.027582
O	      6.43139      3.88185      8.26878         0.192929      0.007658      0.006024
O	      8.76281      6.20330      8.21465         0.046685     -0.047992      0.058276
O	      2.07030      6.36346      6.38079         0.132624      0.029293     -0.152772
O	      4.11055      8.41778      6.42966        -0.105736     -0.158272     -0.142936
O	      4.11630      6.33867      8.35174         0.075305     -0.100644      0.023564
O	      6.16487      8.38482      8.47573        -0.403999      0.107664     -1.742244
O	      6.30641      6.44790     10.43245         0.060663     -0.993288     -0.127917
