# total energy = -207.50757940 eV
 
CRYSTAL
PRIMVEC
0.005294 6.546277 6.069163 
6.278242 0.005508 6.069179 
4.179534 4.358044 0.009592 
PRIMCOORD
36 1
Li	      6.26755      4.35946      2.12561         0.039567     -0.066536      0.083725
Li	      4.08634      2.26819      2.13682         0.045550      0.028559      0.066146
Li	      4.17207      0.16461      4.02678         0.025721      0.039702     -0.033209
Li	      6.15855      2.24495      4.08186         0.008761     -0.001806     -0.046763
Li	      6.31696      6.43413      4.04074         0.014858     -0.067171      0.030566
Li	      4.30275      4.30124      4.00847         0.033160     -0.028014      0.015328
Li	      0.04680      4.43559      4.08759        -0.042637      0.055662     -0.030002
Li	      2.04320      6.44225      4.04507        -0.026159     -0.001344     -0.037525
Li	      6.26130      6.57533      8.21913        -0.006483      0.058363      0.065854
V	      8.28337      8.79294      8.26121        -0.278862      0.091791     -0.031303
Fe	      6.35475      6.50247     12.02087        -0.085408     -0.089902      0.136164
Fe	      4.19096      6.47872      2.11212        -0.070478      0.055419      0.118990
Fe	      2.09312      4.28447      2.15635        -0.118224     -0.096260     -0.055796
Fe	      4.08679      2.24502      5.91654         0.122040     -0.038469      0.182069
Fe	      4.19329      6.62653      5.96331         0.029028     -0.080995      0.107684
Cu	      8.34464      8.67525     12.10627         0.009018     -0.027321     -0.121281
Cu	      6.31820      4.37592      6.02491         0.043883      0.066306      0.147172
Cu	      2.08653      4.37897      5.97438         0.009674      0.030412      0.032962
O	      6.24849      6.49195     10.19526        -0.001693     -0.032399     -0.204738
O	      8.40488      8.68968      9.99458         0.025424     -0.016305      0.089276
O	      2.01487      2.27208      1.97233         0.010006      0.062460     -0.072941
O	      4.08779      4.43016      1.96240        -0.065552     -0.035931      0.042879
O	      4.19563      2.21539      4.08142        -0.018815      0.029336     -0.233155
O	      6.32944      4.35712      4.19414        -0.018038      0.004576     -0.348118
O	      6.34544      1.99061      6.10531        -0.168359     -0.050232      0.016681
O	      8.24767      4.55847      6.17279         0.207379      0.091851      0.071789
O	      2.04667      4.40638      3.99890         0.064704      0.018360     -0.019902
O	      4.16946      6.53583      4.05268         0.002075      0.018306     -0.086466
O	      4.42064      4.36403      6.12518        -0.207659      0.002351     -0.053712
O	      6.24538      6.78325      6.08591         0.001117      0.104544     -0.037859
O	      6.26005      4.28924      7.95533         0.023878     -0.088661      0.191331
O	      8.45486      6.75048      8.01470        -0.003381     -0.072905     -0.034406
O	      2.12397      6.34761      6.10631         0.090486     -0.046874     -0.063722
O	      4.01131      8.64280      6.14358         0.081868      0.124663      0.000279
O	      4.23015      6.24037      8.01621         0.014484     -0.060693     -0.010436
O	      6.51810      8.69461      8.03463         0.209064      0.019155      0.122436
