# total energy = -218.26210203 eV
 
CRYSTAL
PRIMVEC
0.056958 6.106813 6.414231 
6.215485 0.032251 6.439777 
4.142187 4.086537 0.023573 
PRIMCOORD
36 1
Li	      6.18617      4.08453      2.44634        -0.055232      0.006833      0.025004
Li	      8.10197      4.08320      4.34098         0.027747      0.032747      0.023621
Li	      6.27256      2.20496      4.30191        -0.043682     -0.113431      0.029989
Li	      8.24995      4.15752      8.57302         0.004751      0.003864     -0.041263
Li	      6.14922      5.95870      4.39388         0.009462      0.065222      0.024517
Li	      4.33098      4.14939      4.33600        -0.118111     -0.060753      0.010324
Li	      6.24985      4.13076      6.28857         0.007966     -0.039220     -0.019219
Li	      4.25309      6.05604      6.34245        -0.034735      0.000940     -0.018398
Li	      6.31353      6.06055      8.61724         0.036597     -0.015694      0.045730
Mn	      2.13650      4.04522      6.38376        -0.095777      0.061486     -0.074317
V	      4.12926      1.96081      2.28930        -0.088100      0.178810     -0.081358
Cr	      6.26149      6.15277     12.81605        -0.004643      0.091986      0.007701
Cr	      8.33256      8.21448     12.81390        -0.030838     -0.021043      0.008401
Cr	      4.15313      6.11271      2.24413         0.038658     -0.110911     -0.083866
Co	      2.12397      6.11040      4.31469         0.019115     -0.008042     -0.062014
Cu	      8.26433      6.12258      6.42345         0.071982     -0.098192     -0.022289
Ni	      6.27231      4.11759     10.64671         0.059570      0.045920      0.068713
Ni	      4.17833      4.13202      8.60490        -0.096298      0.086337      0.106181
O	      2.16948      2.04980      1.98371        -0.006798     -0.017131     -0.022634
O	      4.13100      4.00396      2.02264         0.010093      0.010459     -0.062148
O	      4.15699      2.08751      3.98290        -0.035347     -0.018239      0.062652
O	      6.21152      4.08594      4.35582        -0.013167     -0.017059     -0.034571
O	      6.25665      2.02521      6.59749         0.039523      0.006923      0.013459
O	      8.37782      4.11469      6.40099         0.025562     -0.031939     -0.002416
O	      2.09847      4.17478      4.47273         0.167293     -0.002752      0.130958
O	      4.08722      6.13307      4.23161        -0.034094     -0.101365      0.009839
O	      4.01559      4.01309      6.53570         0.003557      0.094849     -0.088138
O	      6.30931      6.26590      6.39257        -0.090450      0.072281      0.047180
O	      6.20416      4.03267      8.61187         0.100396      0.082466     -0.056718
O	      8.38777      6.17433      8.81877        -0.034149     -0.076358      0.130160
O	      2.08377      6.10788      6.27978         0.047445     -0.077292     -0.020529
O	      4.20139      8.18729      6.45400         0.065443      0.005212      0.020242
O	      4.18872      6.28483      8.52625        -0.014606     -0.127329     -0.027254
O	      6.10062      8.18965      8.38026         0.090986     -0.036748     -0.064798
O	      6.39846      6.14916     10.81984         0.049213      0.153752      0.002018
O	      8.35481      8.09554     10.78958        -0.079333     -0.026586      0.015243
