# total energy = -216.47573776 eV
 
CRYSTAL
PRIMVEC
0.008552 6.240500 6.302221 
6.292742 0.003462 6.308044 
4.190800 4.159535 0.006414 
PRIMCOORD
36 1
Li	      0.19629      6.11487      6.32809         0.065641     -0.040547     -0.006615
Li	      2.17532      6.18101      8.24171        -0.012837     -0.001248      0.003342
Li	      4.26450      8.25295      8.21093         0.026295     -0.006723      0.029350
Li	      4.24305      6.21043      2.13907        -0.016887     -0.031473      0.164274
Li	      2.02882      2.14153      4.18597        -0.092849     -0.038451     -0.050118
Li	      2.09526      6.18121      4.42525         0.152470      0.013783      0.001589
Li	      6.13565      8.46401      6.33441        -0.012799      0.050538     -0.000224
Li	      4.03713      6.33955      6.38144        -0.057618     -0.024866     -0.145887
Li	      6.19648      6.30777      8.40900         0.011205      0.025653      0.023431
Mn	      6.31150      8.27414     10.46840        -0.166990      0.062089      0.023914
V	      8.33409      6.26519      6.40349        -0.238651      0.024123     -0.373995
Cr	      4.21575      6.25633     10.44135        -0.045040      0.077475     -0.047397
Cr	      2.13695      4.03156      2.13011         0.063910     -0.116886      0.022518
Cr	      6.27867      4.17824      6.32602        -0.062555     -0.039318     -0.027747
Co	      4.12821      4.38294      4.16379        -0.143862     -1.570713     -0.433680
Ni	      2.18788      8.16264      6.34915        -0.067169      0.031087      0.051986
Ni	      4.24147      8.29647      4.25956         0.027649     -0.141716     -0.162787
Ni	      4.15316      4.22314      8.39462         0.178489     -0.198017      0.064537
O	      2.09014      6.22388      6.33393        -0.111864     -0.142297      0.090990
O	      2.08122      2.22175      2.08037         0.020320      0.233949      0.017908
O	      3.99593      4.17446      2.17984         0.013611      0.361853      0.781567
O	      4.34662      2.07023      4.32132         0.066374      0.041583     -0.086754
O	      6.30766      4.04656      4.29641        -0.152279      0.032329      0.100508
O	      6.22773      2.15818      6.19328        -0.152694      0.027881     -0.026391
O	      8.29932      4.21819      6.31440        -0.009037     -0.001561      0.083687
O	      2.11974      4.13605      4.05566         0.585737      0.194015      0.008922
O	      4.21328      6.15820      4.21300        -0.067525      0.522268      0.047714
O	      4.26617      4.07863      6.29770         0.058846      0.228024     -0.306748
O	      6.48829      6.17499      6.23242         0.267226     -0.018137      0.004765
O	      6.43261      4.19645      8.37725         0.027592      0.064963     -0.076876
O	      8.47200      6.21000      8.22848         0.035258     -0.072726      0.109376
O	      4.16311      8.31382      6.20963         0.149530      0.052826      0.055412
O	      4.20236      6.21252      8.52307         0.020498      0.184318     -0.000558
O	      6.33398      8.31120      8.60718        -0.174757     -0.016518      0.037166
O	      6.20278      6.34371     10.51689        -0.030817      0.103649      0.027785
O	      8.30664      8.38152     10.50638        -0.154422      0.128789     -0.004963
