# total energy = -219.52403979 eV
 
CRYSTAL
PRIMVEC
0.021097 6.172872 6.213254 
6.290103 0.010016 6.225208 
4.182048 4.111592 0.018092 
PRIMCOORD
36 1
Li	      6.40126     10.28356      8.40806        -0.066842      0.006235      0.056767
Li	      6.28523      8.26815     10.27099         0.030278      0.003759     -0.020948
Li	      6.32420      2.16041      8.33046        -0.035577     -0.014516      0.049195
Li	      8.27852      4.08654      8.36969        -0.026801      0.044166      0.033545
Li	      2.17946      2.01103      4.11335        -0.018678     -0.018153     -0.007295
Li	      8.31187      6.22592      6.28832        -0.011598      0.002361      0.072364
Li	      4.29240      6.11481      6.25168         0.015334      0.022260     -0.083275
Li	      4.24524      4.13009      8.27794         0.043847     -0.075036     -0.017789
Li	      6.22737      6.14769      8.26057         0.108318     -0.023672     -0.008327
Mn	      6.35791      8.14425      6.28313        -0.024264      0.045836     -0.256567
V	     10.43280      4.22449      6.34468         0.101657     -0.024534     -0.200097
Cr	      2.10114      2.05908      0.04557        -0.022926     -0.118022     -0.200839
Cr	      6.24676      4.17897      6.29575         0.035435     -0.058025     -0.146909
Cr	      8.41794      6.19033     10.25119        -0.226660      0.098075     -0.237347
Co	      4.16323      0.02129      4.11965         0.092871      0.094891     -0.572347
Co	      4.26732      4.07215      4.11115         0.090286      0.023155      0.163113
Cu	      4.19851      8.15432      8.30640         0.083207      0.177119     -0.389753
Ni	      6.30870      4.10170     10.26219         0.090491      0.015179      0.062635
O	      2.19451      2.04441      1.98577         0.152688     -0.011570      0.268651
O	      4.16521      4.09197      1.92102        -0.005602      0.134640      0.214066
O	      4.22871      1.97876      4.06127         0.150807      0.600039      0.458000
O	      6.38308      4.10682      4.26343        -1.209216     -0.085383      0.081950
O	      6.38603      2.04670      6.27042        -0.032005      0.158194      0.029214
O	      8.41090      4.08768      6.13063        -0.063474      0.085198      0.226871
O	      2.10544      4.19484      4.25351         0.201694     -0.085825      0.125035
O	      3.99538      6.16192      4.15929        -0.009320     -0.276749      0.056758
O	      4.27229      4.10936      6.19434        -0.054118     -0.000695     -0.030019
O	      6.28541      6.17611      6.20290        -0.000709      0.001569      0.017433
O	      6.30162      4.12007      8.25309        -0.001188      0.004132     -0.110922
O	      8.31738      6.17188      8.48638        -0.008744      0.015748      0.164304
O	      1.96876      6.20007      6.10772         0.105946     -0.026060      0.074328
O	      4.14296      8.32250      6.19904         0.015067     -0.035471     -0.185879
O	      4.20362      6.21228      8.46317         0.039863     -0.315050     -0.001750
O	      6.21473      8.23726      8.13840        -0.163004     -0.014539      0.205423
O	      6.31445      6.16556     10.53768         0.729916      0.147220      0.114719
O	      8.43736      8.26190     10.44053        -0.106978     -0.496476     -0.004307
