# total energy = -218.80559202 eV
 
CRYSTAL
PRIMVEC
0.020386 6.243809 6.358952 
6.123807 0.042192 6.336999 
4.095402 4.160246 0.015865 
PRIMCOORD
36 1
Li	      8.22469      8.37843     12.54829         0.025021     -0.001825      0.001142
Li	      4.05880      2.04893      2.21217         0.011706     -0.002691      0.016486
Li	      8.22716     10.27893     10.60475         0.090747     -0.067570      0.027283
Li	      6.29584      8.31286     10.58200         0.038378     -0.082786      0.003613
Li	      8.16266      4.23404      8.48519         0.049271     -0.026087     -0.057607
Li	     10.08980      8.33694     10.57542         0.012823      0.029778      0.025481
Li	      8.22804      6.42836     10.50027        -0.073684      0.027620     -0.007235
Li	      4.06475      6.25915      6.38725        -0.007589     -0.021000      0.125691
Li	      8.22069      8.34990      8.73606        -0.006796     -0.007004      0.023515
Mn	      2.13638      6.26746      8.49067         0.006697     -0.060988     -0.140997
V	      6.01337      8.35887      6.36560        -0.119237     -0.053889      0.138382
Cr	      8.18787      6.27914      6.37319        -0.057148     -0.146296      0.046989
Cr	      6.14920      4.19421      6.36422         0.079016      0.067144     -0.073150
Cr	      6.13819      6.25550      8.62608        -0.023343      0.090913      0.258849
Co	      6.09909      6.30531     12.55940         0.303138     -0.302640      0.205594
Co	      6.14154      2.13104      8.43802        -0.040145      0.087750     -0.049080
Cu	      2.05101      2.13754      4.15752        -0.008148      0.026450     -0.016702
Cu	      4.07478      4.19422      4.20778        -0.051603      0.031842     -0.041602
O	      8.19625      8.33168     10.65818        -0.006543     -0.022848     -0.050389
O	      1.94878      1.92153      1.96366        -0.002604     -0.008503     -0.072877
O	      4.20602      4.29674      2.04320         0.038050     -0.037728     -0.047963
O	      4.01030      2.20808      4.34910        -0.014832     -0.049852     -0.031215
O	      6.07961      4.22296      4.19790         0.085600     -0.006274     -0.029665
O	      6.06790      2.20457      6.46798         0.005689     -0.065458      0.038556
O	      8.14537      4.29206      6.35657         0.132157      0.120827     -0.036197
O	      2.10151      4.12564      4.39709        -0.098157     -0.018006     -0.067384
O	      4.17545      6.17959      4.02309         0.020204      0.103749     -0.167101
O	      4.07780      4.14364      6.29764         0.081912      0.047795      0.111250
O	      6.16464      6.27564      6.57114        -0.009781     -0.057793      0.066436
O	      6.14988      4.18054      8.34830        -0.016430     -0.068939     -0.040954
O	      8.19494      6.26041      8.39281         0.118675      0.013619     -0.029413
O	      2.06731      6.10712      6.50928        -0.343428      0.195182     -0.082259
O	      4.25375      8.28488      6.34295        -0.037617      0.208073      0.015562
O	      4.05506      6.29764      8.48445        -0.097620     -0.015566      0.025380
O	      6.15081      8.36409      8.36680        -0.020857      0.075562      0.074757
O	      6.16336      6.27913     10.56550        -0.063518     -0.002561     -0.163175
