# total energy = -138.33408151 eV
 
CRYSTAL
PRIMVEC
2.044101 2.141942 0.003211 
-8.359163 8.742844 0.014733 
0.021995 -2.152720 6.113473 
PRIMCOORD
24 1
Li	     -5.10118      7.42370      5.11873        -0.008788     -0.002007     -0.016704
Li	     -3.35392      5.62506      1.06937         0.008671     -0.005732      0.022608
Li	     -5.36944      5.68580      3.06114         0.010114      0.002411      0.012288
Li	     -1.13535      3.53528      5.16031         0.028776     -0.006095      0.002090
Li	     -7.13872      9.63655      0.99655        -0.008539      0.008363     -0.023190
Li	     -0.97597      0.83018      3.00557        -0.029121      0.003089     -0.000831
Mn	      1.00182      1.00282      5.07940        -0.015671      0.006927      0.018800
Mn	     -1.06598      3.25829      1.02571        -0.004498      0.001898      0.004754
Mn	     -3.11236      3.36185      3.08556         0.020190     -0.010757     -0.019493
Ni	     -3.17810      5.51019      5.14278         0.050808     -0.009744     -0.064158
Ni	     -5.24635      7.63107      1.03284         0.005970     -0.000236     -0.006700
Ni	     -7.29237      7.59890      3.03607        -0.047680      0.010226      0.064785
O	     -7.47530      7.80905      5.12978        -0.048515      0.042191      0.097957
O	     -5.36800      5.46836      1.04429         0.125801     -0.058421      0.130193
O	     -5.27735      7.69611      2.97803         0.116295     -0.100224      0.099553
O	     -3.10253      3.35096      4.96410         0.085915     -0.057429     -0.065226
O	     -1.19269      1.06882      0.94924        -0.003919     -0.000981     -0.020968
O	     -1.12625      3.50252      3.03147        -0.027313      0.027766      0.006240
O	     -7.16796      7.65130      1.01742        -0.137902      0.061377     -0.121523
O	     -2.99413      5.29833      3.04941         0.042576     -0.037990     -0.099903
O	     -5.19282      5.41311      5.20020        -0.116811      0.099024     -0.092842
O	     -2.98371      3.30538      1.09928         0.009539      0.000382      0.017786
O	      0.99138      1.01448      3.20075        -0.086055      0.056109      0.068723
O	     -0.98418      0.86170      5.13412         0.030156     -0.030146     -0.014239
