# total energy = -218.91026584 eV
 
CRYSTAL
PRIMVEC
0.026578 6.267314 6.219380 
6.125840 0.033115 6.213032 
4.102449 4.192247 0.003651 
PRIMCOORD
36 1
Li	      8.14872      2.13816      6.20505        -0.135895     -0.027474     -0.070531
Li	      6.15511      4.18975      2.10268         0.073733     -0.102755     -0.031574
Li	      6.17373      2.15425      4.16788         0.072460     -0.031910      0.079146
Li	      6.15235      2.20955      8.25068        -0.230272      0.361141      0.003939
Li	      8.15706      4.21069      8.25741        -0.261691      0.272888     -0.023914
Li	      4.11040      2.15638      6.21904         0.028605     -0.004975      0.250407
Li	      6.10792      4.16964      6.26717        -0.017487      0.030863      0.213513
Li	      2.09732      4.15740      6.21589         0.120708     -0.031995     -0.031165
Li	      8.18942      8.37582      8.28007         0.190301     -0.207340     -0.005529
Mn	      4.12692      4.20085      4.17771        -0.169568      0.265090      0.386769
V	      4.07751      8.36776      8.24324         0.638659     -0.234571     -0.957701
Cr	      6.13839      0.16531      6.24591         0.092377      0.399235     -0.328354
Cr	      8.13193      4.15268      4.18562         0.020863     -0.440438      0.201381
Cr	      6.22497      6.25045      8.22923        -0.251368     -0.005045     -0.132765
Co	      8.17831      6.35727     10.34033         0.010352      0.007592     -0.494134
Co	      4.08435      6.23747      6.22074         0.202154     -0.251512      0.228011
Ni	      0.02265      4.17354      4.13979         0.024575     -0.027109     -0.535186
Ni	      6.14357      6.28355      4.19570        -0.321738      0.215647      0.356635
O	      2.20374      2.08390      2.12984         0.552300     -0.089554     -0.136180
O	      4.16117      4.07729      2.05291        -0.071083     -0.825012      0.281572
O	      4.06029      1.99737      4.08031         0.176116      0.194924     -0.715144
O	      6.13116      4.23221      4.15026         0.087983     -0.142463     -0.092130
O	      6.13973      1.96716      6.28792         0.011872     -0.204606     -0.059717
O	      8.35011      4.18407      6.15238         0.037245     -0.046184     -0.159172
O	      2.13620      4.30766      4.11081         0.180771     -0.129769      0.009244
O	      4.02182      6.36415      4.08908         0.033654     -0.211741      0.123315
O	      4.10539      4.21491      6.07361        -0.056910      0.444396     -0.137606
O	      6.13667      6.28544      6.29687        -0.646696      0.082528     -0.719158
O	      6.14049      4.39812      8.30393         0.055246     -1.087068      0.120504
O	      8.06642      6.37385      8.40014         1.230649     -0.015718      0.405025
O	      1.99068      6.26090      6.06974         0.304992      0.008425      0.084999
O	      4.12141      8.44206      6.28208        -0.070802     -0.329142      1.216439
O	      4.16858      6.32140      8.35323        -0.625771      0.921715      0.066123
O	      5.99884      8.21186      8.31067        -1.064779      0.769342      0.114655
O	      6.16945      6.26600     10.39970        -0.097439      0.190646      0.350668
O	      8.21216      8.36477     10.34700        -0.124115      0.281948      0.137615
