# total energy = -223.16322122 eV
 
CRYSTAL
PRIMVEC
0.011627 6.251936 6.272141 
6.201477 0.016732 6.266651 
4.146719 4.176434 -0.000994 
PRIMCOORD
36 1
Li	      0.07865      6.20389      6.24728         0.064515     -0.043273     -0.015458
Li	      6.28203     10.35527      8.34167         0.021295     -0.023664     -0.046755
Li	      4.20843      8.29278      8.27560        -0.025852     -0.044749     -0.064622
Li	      6.21817      2.13964      4.17027         0.042770     -0.009185      0.034564
Li	      4.18274      4.17405      4.20646        -0.001040      0.002585     -0.060861
Li	      6.17303      4.15349      6.24143         0.002565      0.028522      0.000272
Li	      4.14994      8.35508      4.25271        -0.021610      0.015492      0.017243
Li	      4.09633      6.23824      6.36775        -0.051423      0.012897      0.125703
Li	      4.08212      4.25934      8.31650        -0.015663      0.061583      0.028597
Mn	      6.18036      6.21787      4.17438        -0.085009     -0.012677     -0.065676
V	      2.13755      4.14014      2.04496         0.194129     -0.177482     -0.013045
Cr	      8.28728     10.40498     10.47658         0.046428     -0.351937     -0.018374
Cr	      4.15134      2.16406      6.27117        -0.039220      0.057975     -0.064534
Cr	      6.15288      6.29586      8.38122        -0.186329      0.073558      0.063872
Co	      6.21078      2.14931      8.33288        -0.002569     -0.133806     -0.046854
Co	      2.07126      6.27740      4.23605         0.101950      0.044188      0.303748
Co	      6.18668      8.36993      6.31042         0.002365     -0.088424      0.290557
Cu	      2.17863      8.28209      6.24679         0.058136     -0.161836      0.143206
O	      2.10358      2.18032      1.93999        -0.026600      0.140678      0.177713
O	      3.96059      4.27455      2.09216        -0.096191      0.164169     -0.003377
O	      4.03125      2.01822      4.28556        -0.025868      0.023185      0.062642
O	      6.25888      4.27894      4.18524        -0.002718      0.123770      0.035971
O	      6.13935      2.15311      6.44603        -0.058486      0.087425      0.141939
O	      8.29466      4.30689      6.31521        -0.046224      0.249811     -0.008817
O	      2.07312      4.05762      4.12185         0.020004     -0.179001      0.005538
O	      4.20412      6.25443      3.96111         0.120255     -0.016731     -0.180762
O	      3.97322      4.12830      6.25400        -0.013758     -0.081499     -0.009651
O	      6.25782      6.39012      6.34622         0.029483     -0.249070     -0.042269
O	      6.38272      4.22306      8.33046        -0.026603     -0.000929      0.003859
O	      8.21067      6.22181      8.34665         0.029646      0.031758     -0.024337
O	      2.09263      6.08527      6.24555        -0.065905      0.228127     -0.176431
O	      4.31249      8.31197      6.25662         0.000075     -0.011008     -0.090856
O	      4.20581      6.22365      8.50079         0.097165      0.027791      0.019527
O	      6.19744      8.28818      8.19727         0.042950     -0.104209     -0.123147
O	      6.16860      6.32443     10.36416        -0.059573      0.019937     -0.060106
O	      8.27532      8.37614     10.60788        -0.023092      0.296029     -0.339017
