# total energy = -226.94155567 eV
 
CRYSTAL
PRIMVEC
0.015706 6.231680 6.239817 
6.138559 0.016320 6.238975 
4.088427 4.150203 0.014695 
PRIMCOORD
36 1
Li	      2.03727      0.09269      2.08214        -0.007767      0.027333     -0.055333
Li	      4.07781      8.28775      8.30309         0.016837      0.021201      0.053121
Li	      4.05715      0.03501      4.10843        -0.029405      0.015781     -0.020957
Li	      4.16235      6.21916      2.19930        -0.003457     -0.004292      0.061737
Li	      2.05787      2.06572      4.07532         0.022573     -0.033217     -0.025713
Li	      6.14403      4.20994      6.21028        -0.009997      0.029622     -0.021046
Li	      4.13524      8.25256      4.20382         0.053235     -0.022319     -0.046663
Li	      2.07798      6.23134      4.24217         0.036401     -0.018252      0.070410
Li	      6.09532      8.27684      6.22507         0.012390     -0.004358     -0.031625
Mn	      8.22462      8.31545      8.39088        -0.009594     -0.079561      0.049900
V	      4.11908      4.17900      4.17765        -0.021587     -0.172380     -0.207982
Cr	      0.04750      6.21392      6.21100         0.192247      0.207009     -0.001590
Cr	      8.17365      2.10349      6.23410        -0.150116     -0.166043      0.040062
Cr	      2.03133      4.13928      2.11265         0.003621      0.005670      0.092285
Co	      6.13336      8.29519     10.39710        -0.065499      0.014835     -0.000851
Co	      8.15282      6.23429      6.23224        -0.127717      0.006235     -0.048460
Co	      4.11792      6.25891      6.22413         0.112260      0.405830      0.033239
Co	      6.15785      6.24212      8.35752        -0.021487     -0.046108     -0.069257
O	      2.02077      2.18852      1.98852         0.019501      0.047866     -0.065041
O	      4.01774      4.18214      2.06906        -0.046200     -0.003714     -0.049007
O	      4.14489      2.10445      4.27139         0.105689      0.028300      0.099133
O	      5.99237      4.03405      4.10826         0.028202     -0.101612      0.019650
O	      6.07722      2.03624      6.10911         0.052081     -0.067142     -0.026546
O	      8.21867      4.22073      6.31751        -0.017348      0.034545      0.011389
O	      2.20794      4.12113      4.08985        -0.056440      0.010578     -0.082686
O	      4.14818      6.10329      4.22379        -0.040327     -0.015916      0.188007
O	      4.07667      4.02143      6.13432         0.041425      0.216066      0.086269
O	      6.23197      6.23519      6.42603         0.241975      0.014507      0.202905
O	      6.11474      4.28086      8.36809        -0.057032      0.058856      0.040666
O	      8.11996      6.27735      8.20958        -0.006027      0.017616     -0.042564
O	      2.02769      6.32403      6.28601        -0.418748      0.100286     -0.041258
O	      4.04147      8.39156      6.21305         0.034077     -0.485295      0.005706
O	      4.21689      6.13307      8.27926         0.089766     -0.023923     -0.251326
O	      6.25014      8.19173      8.46289         0.071522     -0.044105      0.013980
O	      6.15594      6.36989     10.38557        -0.004636      0.021180      0.006540
O	      8.06918      8.34180     10.48299        -0.040421      0.004922      0.012906
