# total energy = -219.72073264 eV
 
CRYSTAL
PRIMVEC
-0.058770 6.261953 6.403674 
6.239526 -0.027975 6.372416 
4.153460 4.147813 -0.012363 
PRIMCOORD
36 1
Li	      2.04603      2.12302      0.20475         0.007607      0.007060      0.116635
Li	      6.13623      4.30096      2.22922         0.039233     -0.028077      0.030230
Li	      4.03881      2.15262      2.29924         0.039311      0.012684      0.014259
Li	      4.10950      0.13260      4.28658        -0.098354     -0.043799     -0.034665
Li	      6.09843      2.09500      4.27617         0.043922      0.086805     -0.055927
Li	      0.14008      1.98723      2.14664         0.010249     -0.003404      0.063396
Li	      2.15643      3.97599      2.09002        -0.024602     -0.003653     -0.000320
Li	      2.14595      2.04060      4.11772        -0.066486     -0.087574     -0.001724
Li	      4.17614      4.03544      4.05251         0.054771      0.015518     -0.108301
Mn	      6.18736      6.24535      8.52132        -0.021684     -0.012991      0.027187
V	      4.10774      4.20109      8.54658         0.025296      0.030980      0.031724
Cr	      4.11506      4.19255      0.07424         0.117481     -0.227858     -0.216480
Cr	      4.11810      8.31593      4.26322         0.003822     -0.035578     -0.053504
Cr	      2.05434      4.13647      6.36325        -0.048549      0.022993     -0.134344
Fe	      2.07140      6.23719      4.30011        -0.045284      0.064833     -0.140691
Co	      6.32864      4.04876      6.13697         0.122667     -0.077874      0.821351
Ni	      4.16461      2.03600      6.21491        -0.026560      0.038935      0.152808
Ni	      4.10872      6.25240      6.35357        -0.016991     -0.030907      0.015450
O	      2.08655      2.04916      2.15731         0.039157      0.012757      0.010502
O	      4.16463      4.15265      1.97019        -0.037436     -0.027346      0.055453
O	      4.14258      2.07744      4.25226        -0.034517      0.018733     -0.105650
O	      6.20770      4.11733      4.38258         0.072909     -0.058944     -0.107885
O	      6.19353      2.04641      6.40541         0.097715      0.626330     -0.192495
O	      8.31656      4.16426      6.38470        -0.505509     -0.132979     -0.034242
O	      1.97157      4.24169      4.35541         0.042412     -0.078629      0.000963
O	      4.01614      6.31998      4.30647         0.096743      0.068574     -0.082187
O	      4.11366      4.14719      6.52612         0.187950     -0.009652     -0.076566
O	      6.18687      6.24163      6.38727         0.020237     -0.320218     -0.058749
O	      6.12122      4.27588      8.57591         0.041635     -0.021176      0.005582
O	      8.16394      6.38369      8.55745         0.047076     -0.041559     -0.001683
O	      1.99831      6.16955      6.33780        -0.118724     -0.028002      0.087778
O	      4.19412      8.35958      6.27268        -0.018086      0.148619      0.058974
O	      4.19932      6.07798      8.47328        -0.034180      0.064948      0.005890
O	      6.27557      8.19678      8.39786        -0.074994     -0.011564     -0.091890
O	      6.25620      6.16837     10.72883        -0.027191      0.049840     -0.009846
O	      8.33140      8.24985     10.48882         0.088953      0.012176      0.008966
