# total energy = -225.08963734 eV
 
CRYSTAL
PRIMVEC
-0.026711 6.358905 6.091183 
6.239325 -0.025045 6.090952 
4.154295 4.233437 -0.012179 
PRIMCOORD
36 1
Li	      4.13195      0.18635      4.05971        -0.039512     -0.059741      0.024369
Li	      6.03797      2.17957      4.07731         0.079992      0.102590      0.013185
Li	      4.13209      6.29212      1.97550        -0.044692      0.017354     -0.009815
Li	      2.19325      4.21311      2.01548         0.045231     -0.002503      0.079379
Li	      2.21908      2.07931      4.06654        -0.087399      0.022801      0.026965
Li	      4.13553      4.06101      4.05692        -0.060227      0.029359      0.011401
Li	      4.16006      2.12297      5.97663        -0.002812      0.016974      0.118471
Li	      6.30773      8.30412      6.07580         0.041190     -0.084397     -0.090112
Li	      4.27259      6.23587      6.10135         0.011619     -0.042903     -0.007634
Mn	      4.11746      4.22689      8.09886         0.037871     -0.126357     -0.002783
V	      0.07317      4.14169      4.05596        -0.080792     -0.066730      0.052568
Cr	      8.26439      2.13411      6.11037         0.044798      0.005474     -0.181269
Cr	      6.21459      4.22854      2.06183         0.052866     -0.006387      0.046816
Cr	      8.27426      6.32242     10.15251         0.154802     -0.064474      0.133538
Fe	      6.25079      4.32172      5.96927        -0.002274     -0.174062      0.171842
Co	     10.34211      4.26469      6.08716         0.074698     -0.017287     -0.048839
Co	      6.18709      6.36625      8.10711        -0.307241      0.121446     -0.077445
Cu	      4.13311      2.14430      2.08236         0.076710      0.046496     -0.197503
O	      4.13976      2.12020      3.95576         0.067289     -0.055016     -0.042398
O	      2.08198      1.99049      1.96908        -0.019058      0.066780      0.106526
O	      4.22104      4.28120      1.89900        -0.038911      0.096453      0.044199
O	      6.19201      4.24453      4.06788         0.005945     -0.019960     -0.244728
O	      6.29442      2.01920      6.05795        -0.057069      0.065826     -0.071641
O	      8.33200      4.12629      6.10793         0.013181      0.030901     -0.044477
O	      1.96749      4.34877      4.05239         0.125750      0.006328     -0.000612
O	      4.04438      6.56926      4.12733         0.030342     -0.073045      0.034636
O	      4.24858      4.19613      6.21675        -0.075561     -0.016593     -0.022545
O	      6.24423      6.24456      6.16887         0.099235      0.096242     -0.718934
O	      6.11301      4.18358      8.17941         0.096450      0.004886     -0.102477
O	      8.20995      6.49799      8.19535         0.467925      0.031177      0.144468
O	      1.88411      6.46685      6.08538         0.002590      0.059601      0.035677
O	      4.06374      8.64750      6.07391        -0.034583      0.036513      0.185574
O	      4.10865      6.16669      8.11028        -0.314006      0.007029      0.135493
O	      6.35618      8.55249      8.09662        -0.211139     -0.047905      0.053772
O	      6.25613      6.17264     10.17786        -0.039337     -0.001132      0.448775
O	      8.40244      8.36446     10.11933        -0.113872     -0.005737     -0.004441
