# total energy = -223.69571565 eV
 
CRYSTAL
PRIMVEC
0.018084 6.224407 6.160939 
6.396438 0.016827 6.161930 
4.267190 4.153454 0.008131 
PRIMCOORD
36 1
Li	     10.55186      4.16013      6.15630        -0.048640      0.225808     -0.023054
Li	      8.53573      2.17298      6.16527        -0.240942     -0.011909      0.049350
Li	      6.41305      4.14838      2.11108        -0.061590      0.043689      0.065054
Li	      8.42074      4.22508      4.21835        -0.136261      0.062307      0.080012
Li	      4.34654      4.10579      4.13658         0.136409     -0.094451     -0.048055
Li	      8.44773      6.18316      6.10068         0.206116     -0.012734     -0.047627
Li	      6.46032      4.24174      6.10608        -0.001402     -0.141955     -0.067319
Li	      4.38782      6.21219      6.21771         0.024952     -0.031380     -0.014526
Li	      6.34474      6.26364      8.12427         0.021021      0.004143      0.007642
Mn	      4.25017      8.33689      4.18436         0.032188     -0.003821     -0.022306
V	      2.10929      6.20037      4.23774        -0.032948      0.104838      0.041081
Cr	      6.42385      2.06705      8.14036         0.051999     -0.027840     -0.550504
Cr	      6.45288      6.17109      4.15521         0.220596     -0.388844      0.161121
Cr	      4.23463      4.29298      8.17423        -0.056838      0.116905     -0.306729
Fe	      8.61091      4.16751      8.04262        -0.053768     -0.045367     -0.007846
Co	      4.30575      8.29303      8.17155        -0.145728      0.045992      0.162193
Co	      6.28888      2.21415      4.23713         0.438427     -0.096255     -0.658773
Ni	      6.42145      8.24166      6.21234         0.050969      0.064814      0.122323
O	      2.05542      2.11834      2.08325        -0.084522      0.026054      0.067653
O	      4.19855      4.19740      2.00404         0.097604     -0.009301      0.028736
O	      4.23242      2.07981      4.02047        -0.256429      0.002587     -0.306449
O	      6.35023      4.19943      4.12435        -0.016911      0.461396     -0.035124
O	      6.38468      2.07995      6.06604        -0.015691     -0.083822      0.913561
O	      8.50588      4.16077      6.21798         0.013341     -0.003385     -0.110524
O	      2.17477      4.17034      4.04445        -0.221332      0.059682      0.015250
O	      4.28753      6.30793      4.03400         0.012980      0.226644     -0.004935
O	      4.19615      4.10700      6.37476         0.016635      0.093415      0.228980
O	      6.40955      6.25562      6.09658        -0.066630     -0.104927     -0.022949
O	      6.33434      4.11746      8.32009        -0.007475      0.035114      0.163223
O	      8.67332      6.26236      8.35465        -0.069707      0.030180      0.083849
O	      2.25715      6.19334      5.98780         0.053534      0.021821     -0.036551
O	      4.35018      8.30077      6.12908        -0.058819     -0.012239     -0.100807
O	      4.30662      6.11586      8.26587        -0.014122     -0.090337     -0.017390
O	      6.50924      8.32552      8.34486         0.021988     -0.027860      0.049911
O	      6.60391      6.17007     10.26993        -0.065225     -0.432103     -0.005886
O	      8.46276      8.19622     10.18832         0.256223     -0.006856      0.147414
