# total energy = -228.61804162 eV
 
CRYSTAL
PRIMVEC
-0.001845 6.216639 6.171932 
6.274206 -0.005946 6.175067 
4.187727 4.151713 -0.008754 
PRIMCOORD
36 1
Li	      6.24773      4.10067      2.10976         0.002850     -0.008283     -0.000994
Li	      4.25535      2.13223      2.08212         0.064849      0.008086      0.004345
Li	      6.23503      2.09248      4.12365         0.039844     -0.001804      0.006960
Li	      8.36139      4.18547      8.23611        -0.022033      0.070081     -0.042831
Li	      4.21210      4.08160      4.10767         0.012952      0.002588      0.042946
Li	      4.22607      2.07693      6.14360         0.045824      0.012252      0.050709
Li	      6.32015      4.08010      6.13462         0.057682     -0.070813      0.026933
Li	      6.31913      4.17590     10.28126        -0.000674      0.036475     -0.072375
Li	      8.27026      6.16952     10.27505        -0.146792     -0.022553     -0.031460
Mn	      2.14009      2.10217      4.10059        -0.118563     -0.054331     -0.132113
V	      4.17909      6.17099      2.07993        -0.199929      0.366998      0.002502
Cr	      8.37532      8.29250     12.32681        -0.100552     -0.046426      0.076150
Cr	      4.16325      6.20570      6.14445         0.069159     -0.065227      0.031528
Cr	      8.33016      8.24967      8.24041         0.136106     -0.164572      0.079621
Fe	      4.18895      0.03714      4.13642        -0.068339     -0.104612     -0.105234
Co	      6.28876      6.19977     12.30913        -0.046311      0.059239     -0.015260
Co	      2.08494      4.14837      6.15369        -0.019777      0.042318     -0.019086
Co	      6.32827      6.16638      8.24055         0.028716     -0.105511      0.220126
O	      1.97838      2.13418      2.08647         0.234270      0.006093      0.063855
O	      4.17074      4.36598      2.04234         0.001996     -0.370358      0.059533
O	      4.05563      2.04022      4.09271        -0.052580      0.158223     -0.005169
O	      6.34924      4.31694      4.11626        -0.055026      0.092685     -0.018588
O	      6.38141      2.07118      6.26855         0.006869     -0.055142     -0.102799
O	      8.39745      4.04266      6.13482        -0.084147      0.039630      0.050457
O	      2.10474      4.02856      4.23032         0.041159      0.004552      0.116553
O	      4.34431      6.21592      4.09868         0.005876      0.018263      0.210684
O	      4.02483      4.20321      6.23792         0.045351      0.017632     -0.070642
O	      6.21032      6.34681      6.08142         0.000686     -0.056382     -0.021005
O	      6.17108      4.01795      8.22334        -0.039643     -0.084503     -0.018304
O	      8.41520      6.25729      8.23743         0.171966     -0.039211     -0.003563
O	      2.16453      6.18212      6.14318         0.068017      0.041741     -0.034693
O	      4.20009      8.22868      6.20365        -0.043125      0.027955      0.013599
O	      4.23496      6.10654      8.17650        -0.142094      0.094759     -0.040457
O	      6.32974      8.23024      8.08837        -0.032444      0.219538     -0.115072
O	      6.17762      6.24761     10.28906         0.148557     -0.032343     -0.272069
O	      8.31394      8.36357     10.30290        -0.010701     -0.037039      0.065212
