# total energy = -138.03592403 eV
 
CRYSTAL
PRIMVEC
2.032469 2.054082 -0.000296 
2.054499 -2.073123 13.003122 
4.089142 -4.133418 0.005477 
PRIMCOORD
24 1
Li	      5.10619     -3.10666      1.08830         0.000460     -0.001049      0.000741
Li	      3.10231     -1.07688      4.97698         0.005399     -0.007872      0.000901
Li	      7.14930     -3.11616      7.58966         0.001000     -0.001084      0.001752
Li	      5.07499     -3.07659     10.19720        -0.006664      0.006276     -0.011419
Li	      3.05036     -3.07280      3.02702        -0.005218     -0.011788      0.009198
Li	      5.12713     -1.08023     12.14701         0.004502      0.008844     -0.011351
Mn	      5.11623     -3.09994      5.29447        -0.008539      0.005701     -0.039049
Mn	      3.06104     -1.05315      9.87962         0.006357     -0.007740      0.045500
Mn	      5.10483     -1.04947      7.58658         0.000793     -0.000756      0.005457
Ni	      3.06122     -1.04004      1.08526         0.003714     -0.000220      0.010148
Ni	      1.04895     -1.03318      3.13008        -0.049653      0.032370      0.053063
Ni	      7.12826     -3.12001     12.04431         0.051090     -0.033338     -0.060276
O	      5.03217     -3.01347      7.37742         0.000079     -0.020644     -0.023386
O	      3.04346     -1.03049     11.73385         0.110013     -0.104822     -0.147715
O	      4.96328     -1.10054      1.05771         0.118709     -0.068252      0.101843
O	      3.05887     -0.99012      3.07060         0.124823     -0.136257      0.105233
O	      2.99079     -3.01951      9.80302        -0.029849      0.029852      0.003965
O	      0.94260     -0.91842      5.40175        -0.031987      0.035143      0.051695
O	      5.13393     -3.12289      3.44045        -0.110595      0.107726      0.141390
O	      3.14520     -1.13972      7.79692        -0.001757      0.022282      0.027989
O	      7.23428     -3.23446      9.77226         0.039319     -0.038459     -0.048960
O	      5.11840     -3.16323     12.10332        -0.123082      0.140726     -0.103210
O	      5.18666     -1.13386      5.37137         0.026372     -0.024502     -0.010370
O	      1.15966     -0.97967      1.11350        -0.125288      0.067866     -0.103139
