# total energy = -219.22965019 eV
 
CRYSTAL
PRIMVEC
-0.022853 6.272098 6.384207 
6.158197 -0.024997 6.383552 
4.110067 4.187045 -0.020984 
PRIMCOORD
36 1
Li	      4.09608      4.19405      0.13171         0.008049      0.015011     -0.008405
Li	      1.99811      2.08109      0.20008        -0.029998     -0.016813      0.045407
Li	      6.02552      4.27173      2.19199        -0.009917      0.019868     -0.033773
Li	      4.04663      2.20021      2.12071         0.018866     -0.014289     -0.000758
Li	      6.06929      2.26460      4.29242        -0.008785      0.066261      0.022677
Li	      4.20712      6.09551      2.03986         0.037899     -0.039919     -0.044658
Li	      4.26054      4.09121      3.97890         0.048105     -0.058616     -0.036162
Li	      6.12447      4.14318      6.19998        -0.024314     -0.018845     -0.046887
Li	      4.10758      6.28085      6.44532        -0.004892     -0.027847      0.061714
Mn	      4.08559      8.36280      4.28946        -0.039750     -0.005478      0.087296
V	      6.11716      8.39941      6.43369         0.030320      0.005727      0.057377
Cr	      2.06286      2.03121      4.15457        -0.058105      0.016414      0.035306
Cr	      4.20675      2.03247      6.34195         0.163843      0.072326     -0.041487
Cr	      4.11074      4.17469      8.51971        -0.052605      0.102614     -0.002503
Fe	      2.05073      6.26079      4.24305        -0.011989     -0.027244      0.084060
Cu	      6.09529      6.25977      8.50555        -0.032434      0.067329     -0.017230
Ni	      8.19288      4.19362      4.23835         0.061228     -0.019028     -0.031300
Ni	      2.11462      4.10828      2.02300        -0.090494      0.010873      0.032827
O	      2.05474      2.10286      2.18164         0.000014     -0.064801      0.006776
O	      4.06412      4.16419      2.08416         0.089956      0.005920     -0.018149
O	      4.07740      2.05886      4.37482         0.008298      0.143790      0.038449
O	      6.18105      4.27026      4.22116        -0.142785      0.034431     -0.010214
O	      6.00444      2.12752      6.36448        -0.188185     -0.013465      0.024950
O	      8.11818      4.36738      6.35877        -0.009775      0.083427      0.067298
O	      1.93128      4.17989      4.28120        -0.023728     -0.065602     -0.044764
O	      4.07290      6.41754      4.21805         0.082000      0.069901     -0.058269
O	      4.04241      4.05434      6.53048         0.056009     -0.075566      0.008564
O	      6.25133      6.45911      6.17782         0.035222     -0.074955     -0.203999
O	      6.12016      4.23841      8.72213        -0.007944     -0.094317      0.040270
O	      8.11019      6.29432      8.51602         0.160378      0.019429     -0.137452
O	      2.11198      6.04158      6.23795         0.019064      0.031844      0.065355
O	      4.19055      8.31007      6.22037        -0.107435     -0.007787     -0.043400
O	      4.17236      6.15144      8.56292        -0.070642     -0.031340     -0.108033
O	      6.19856      8.30557      8.34977         0.026406      0.032840      0.092620
O	      6.20888      6.08636     10.77193         0.012307     -0.131413      0.148068
O	      8.29399      8.27876     10.58326         0.055814     -0.010682     -0.031568
