# total energy = -219.08306705 eV
 
CRYSTAL
PRIMVEC
0.001860 6.283673 6.342755 
6.210761 0.050775 6.294294 
4.180128 4.196330 -0.005902 
PRIMCOORD
36 1
Li	      4.26115      2.17408      2.20858        -0.000930      0.039539     -0.064629
Li	      6.15435      2.16484      4.12599        -0.011377      0.033649     -0.000099
Li	      2.07567      4.25745      2.30470        -0.014858     -0.086624     -0.063745
Li	      2.10059      2.20597      4.29813        -0.000236     -0.062196      0.052673
Li	      4.02980      4.18847      4.21700         0.060083     -0.008814      0.023261
Li	      6.18464      4.32042      6.23897         0.041420     -0.017973     -0.056386
Li	      2.13185      6.10752      4.15083         0.007662      0.026999      0.030839
Li	      2.13753      4.10636      6.23030        -0.004267      0.003469      0.056537
Li	      6.28411      6.34223      8.39449        -0.017670      0.007064     -0.012504
Mn	      4.12855      0.09674      4.15839        -0.035571      0.091934      0.259493
V	      8.21376      2.14639      6.28419         0.358287      0.144196      0.367248
Cr	      0.01065      6.24870      6.30834        -0.004926      0.124428      0.079039
Cr	      6.24364      4.20611      2.14032        -0.138783      0.195125     -0.215446
Cr	      4.29319      6.28960      6.29840        -0.179639      0.130412     -0.004261
Fe	      8.28481      8.31426      8.37002        -0.054329      0.105894      0.101463
Cu	      4.12518      6.28259      2.17628         0.179123     -0.076446     -0.119464
Cu	      0.09049      4.13950      4.21002         0.174989      0.145068      0.195187
Ni	      4.06093      2.17723      6.27167         0.121116     -0.079718     -0.029526
O	      2.05067      4.20167      4.23314        -0.365558     -0.037300      0.010504
O	      2.03325      2.10011      1.85729        -0.004550     -0.045189      0.155202
O	      4.24624      4.27059      1.99477         0.009388     -0.001201     -0.010273
O	      4.14984      1.97774      4.23285         0.018960     -0.154620     -0.092890
O	      6.39864      4.25906      4.09687         0.173819      0.034024     -0.021908
O	      6.31948      2.02808      6.14961        -0.506638     -0.157125     -0.152499
O	      8.36327      4.17553      6.14643         0.017623      0.309500     -0.223462
O	      4.16350      6.35614      4.39528        -0.018956     -0.161093      0.107284
O	      4.19579      4.27851      6.37988        -0.006191      0.059618      0.025060
O	      6.20584      6.30325      6.39873        -0.098153      0.011485     -0.022657
O	      6.11267      4.09630      8.55466         0.119197      0.014552     -0.345632
O	      8.33804      6.35984      8.32901        -0.073645     -0.089490      0.172799
O	      2.06827      6.42241      6.38364         0.022798     -0.366812      0.068393
O	      4.03843      8.39654      6.33350         0.153328     -0.093279      0.206060
O	      4.10534      6.27224      8.51696         0.055907     -0.009561      0.061023
O	      6.33327      8.52437      8.45364        -0.069643     -0.058328      0.024867
O	      6.10135      6.24833     10.60020        -0.078891      0.059894     -0.088581
O	      8.33925      8.55147     10.65235         0.171110     -0.031080     -0.472968
