# total energy = -219.58263839 eV
 
CRYSTAL
PRIMVEC
-0.010047 6.183060 6.409376 
6.175115 -0.008784 6.407443 
4.129713 4.134035 -0.019121 
PRIMCOORD
36 1
Li	      4.20444      8.14690      8.56274         0.006787      0.005635      0.030443
Li	      6.14429      2.06866      4.24558         0.021422     -0.008647     -0.091213
Li	      4.16464      4.08012      4.43101        -0.060996      0.046841     -0.014041
Li	      8.22777      6.16841      6.35215        -0.114558      0.066766     -0.003720
Li	      6.21205      4.10992      6.33865         0.003237      0.032224      0.034834
Li	      8.22181      6.21371     10.68723         0.049858     -0.015081     -0.093341
Li	      6.14459      8.20992      6.36434         0.060882     -0.104056     -0.025075
Li	      4.10501      6.21160      6.36754         0.045523      0.014928     -0.047373
Li	      6.10861      6.22352      8.42273         0.033703      0.037848      0.020197
Mn	      6.19326     10.28931      8.52033        -0.304722      0.533478      0.093477
V	      4.02404      4.13130      8.35449         0.102778     -0.103992      0.437777
Cr	      4.13527      6.20977      2.14897        -0.208625      0.287376      0.175855
Cr	      2.06808      4.16648      2.20086        -0.134830     -0.103056      0.185877
Cr	      6.26127      6.19107      4.38894        -0.141198      0.198319      0.053364
Fe	      6.14245      6.17900     12.78354        -0.161972     -0.179473     -0.225304
Cu	      8.21675      8.23472     12.78213         0.057037      0.069599      0.029482
Cu	      4.12035      6.19220     10.64298         0.126599     -0.079619      0.017251
Cu	      6.16673      4.14179     10.69812         0.199703     -0.068891     -0.054625
O	      4.02066      8.29425      6.27728        -0.263556      0.110075      0.275209
O	      6.11245      6.14807     10.78014         0.042084      0.234353      0.073755
O	      2.01041      2.11239      2.34876         0.011806      0.648146      0.152025
O	      4.12755      4.19624      2.10441        -0.248444      0.019996     -0.058009
O	      4.00330      2.00752      4.25996        -0.012823      0.080904      0.036397
O	      6.23947      4.19069      4.11329        -0.102417     -0.010839      0.067136
O	      6.24355      2.01380      6.51726         0.141913      0.005041      0.050292
O	      8.27167      4.06398      6.61484         0.079327     -0.155938      0.136593
O	      2.04363      4.08702      4.24518         0.272579     -0.100010     -0.005580
O	      4.23712      6.25824      4.17990         0.071149     -0.257417     -0.075634
O	      4.15652      4.05538      6.59371         0.028550     -0.025405     -0.255302
O	      6.14994      6.16232      6.18379         0.027174     -0.032944     -0.058747
O	      6.19781      4.09846      8.62260        -0.057259     -0.149270     -0.324513
O	      8.30284      6.18790      8.56039         0.115918      0.117346     -0.061201
O	      1.96980      6.23258      6.56089         0.015005      0.121641     -0.013125
O	      4.01270      6.09159      8.39470         0.444710     -0.121664     -0.217344
O	      6.24812      8.29011      8.51474         0.136723     -1.106144     -0.051395
O	      8.31699      8.31503     10.41104        -0.283067     -0.008071     -0.194422
