# total energy = -219.94257824 eV
 
CRYSTAL
PRIMVEC
0.022551 6.247828 6.236700 
6.248301 0.004523 6.254625 
4.170421 4.182101 -0.002019 
PRIMCOORD
36 1
Li	      4.28931     10.38452      6.34941         0.053287     -0.019339      0.009770
Li	      2.05262      6.28535      8.17169        -0.011650      0.033890      0.027530
Li	      4.19349      8.33109      8.20384        -0.001199     -0.032988     -0.004606
Li	      4.17619      6.22807      2.08641         0.006688      0.021037      0.011954
Li	      8.39279      6.26797      6.31031         0.021439     -0.006771     -0.001227
Li	      4.19991      8.28896      4.23748        -0.000437     -0.034870     -0.007433
Li	      2.14641      6.23054      4.21534        -0.004271      0.014704     -0.001733
Li	      2.02046      4.29371      6.27322        -0.024149     -0.006250      0.003373
Li	      4.17017      4.15139      8.29513        -0.029561     -0.007451      0.019976
Mn	      6.26392      6.26855      8.31691        -0.115073      0.099201     -0.010022
V	      6.33211      8.28660     10.37782         0.130457      0.045253     -0.032028
Cr	      2.10140      2.12246      4.12559        -0.025924     -0.067685      0.018107
Cr	      4.16083      4.21666      4.13472         0.058984     -0.042113      0.087800
Cr	      6.23367      4.15733      6.29047        -0.086052     -0.037633     -0.070443
Fe	      2.17134      4.19992      2.03104        -0.094521     -0.004511      0.015883
Ni	      2.11756      8.28029      6.29960         0.001444     -0.054061     -0.037398
Ni	      4.19769      6.27233     10.38777        -0.065184     -0.031059      0.043446
Ni	      4.12786      6.28145      6.25745        -0.002920     -0.091901      0.043042
O	      2.07040      2.16860      2.16388         0.002470     -0.020734      0.104613
O	      4.12009      4.20438      2.13088         0.090131      0.006609      0.038679
O	      4.22727      2.14700      4.20450        -0.029904      0.101193      0.019715
O	      6.22794      4.18211      4.21756        -0.105593      0.074696      0.053233
O	      6.23207      2.15990      6.14092        -0.081479      0.030355      0.048656
O	      8.25852      4.12343      6.24622        -0.012950      0.118643      0.038348
O	      2.17793      4.08637      4.11733        -0.008665      0.024627     -0.031381
O	      4.29353      6.19977      4.17178         0.051194      0.053489     -0.156524
O	      4.23015      4.32213      6.17197         0.056188     -0.212674     -0.095226
O	      6.17855      6.19995      6.29541         0.153070      0.033041      0.007769
O	      6.29944      4.30657      8.27610         0.017443      0.011683     -0.011364
O	      8.19385      6.20551      8.31669         0.006092      0.038652     -0.011314
O	      2.20028      6.26636      6.23894        -0.259300     -0.096861     -0.008041
O	      4.13351      8.16459      6.21697         0.143482      0.283343     -0.011719
O	      4.33870      6.23591      8.35885         0.162329     -0.007790     -0.015391
O	      6.26889      8.19379      8.42901        -0.017442     -0.071704      0.014917
O	      6.23439      6.34922     10.27038         0.137101     -0.054405     -0.034588
O	      8.14726      8.39624     10.42316        -0.115527     -0.089620     -0.066371
