# total energy = -225.21830640 eV
 
CRYSTAL
PRIMVEC
0.005425 6.270782 6.189726 
6.355417 -0.000522 6.195125 
4.238123 4.185469 -0.001351 
PRIMCOORD
36 1
Li	     10.51651      4.12591      6.19134         0.040735     -0.026389     -0.039424
Li	      2.29594      8.33119      6.16182         0.009157     -0.073441     -0.055448
Li	      2.17177      6.28148      8.23426         0.022107     -0.000357     -0.018530
Li	      4.25911      8.35553      8.20632         0.014261     -0.030742     -0.038987
Li	      2.13802      4.14065      2.07121        -0.024953      0.010697      0.059967
Li	      4.20621      4.18830      4.06989        -0.021714      0.048107     -0.040889
Li	      6.35478      4.23703     10.31850        -0.046305      0.024250     -0.015285
Li	      4.24281      4.27601      8.29885         0.008221     -0.023242      0.056573
Li	      6.20332      6.25620      8.33664         0.021747      0.060034      0.059133
Mn	      6.37312      4.13554      6.22765         0.015888     -0.024665      0.157122
V	      8.47842      6.26315      6.27669        -0.134834      0.302794      0.383211
Cr	      4.34000      6.17530      2.06084         0.039268      0.007296      0.098358
Cr	      2.14422      2.13476      4.10404        -0.203578      0.071605     -0.080541
Cr	      4.22863      6.29605      6.26532        -0.000009      0.005470     -0.031327
Fe	      6.42423      8.29545     10.16974         0.083918     -0.162092      0.071794
Fe	      6.25048      8.47591      6.26466         0.054598     -0.097232      0.000472
Co	      8.45925      6.24804     10.27225        -0.145613      0.107565      0.223027
Ni	      4.27115      6.22174     10.24224         0.219380     -0.009645     -0.040554
O	      1.98244      2.09735      2.13149        -0.120577     -0.036556      0.067023
O	      4.19985      4.37840      2.05154         0.017081      0.066314      0.033034
O	      4.20625      2.09462      4.28421        -0.019080      0.080343      0.001667
O	      6.41040      4.21850      4.25286        -0.127732      0.083935      0.086801
O	      6.19712      2.02857      6.19170         0.258168     -0.077667      0.038305
O	      8.36663      4.33959      6.18005        -0.137717     -0.467577     -0.011658
O	      2.13839      4.15402      4.22556         0.125974      0.163095     -0.031703
O	      4.34255      6.27970      4.09755         0.340093     -0.066864     -0.099330
O	      4.29223      4.14432      6.20854         0.020948      0.258754     -0.019121
O	      6.40105      6.36280      6.17002        -0.080219      0.029611     -0.106913
O	      6.35393      3.97003      8.13509         0.000064     -0.045965     -0.153374
O	      8.58199      6.26488      8.12644        -0.034259      0.045896      0.030537
O	      2.26742      6.21884      6.16230        -0.088180      0.154024     -0.421168
O	      4.30262      8.28558      6.20427        -0.092438      0.001679      0.020993
O	      4.24265      6.28153      8.20236        -0.011479     -0.002222     -0.132623
O	      6.31568      8.41351      8.25679        -0.022866      0.033912     -0.068500
O	      6.34763      6.33896     10.29763        -0.071224     -0.009724     -0.018762
O	      8.36635      8.34250     10.33250         0.091171     -0.400999      0.036119
