# total energy = -228.07023688 eV
 
CRYSTAL
PRIMVEC
-0.017757 6.254470 6.143123 
6.398808 -0.002436 6.128040 
4.260643 4.154864 0.003175 
PRIMCOORD
36 1
Li	      6.36446      6.22261     12.22017         0.005212      0.021153     -0.051342
Li	      8.50662      2.20284      6.06515         0.015617      0.003015     -0.008056
Li	      6.37567      4.21685      2.13743         0.028181      0.001672     -0.078372
Li	      8.45393      4.11544      4.15866         0.058315      0.017381     -0.070842
Li	      6.41559      2.13642      4.15140        -0.035619     -0.108180     -0.021073
Li	      2.22661      4.08318      2.05316        -0.029493      0.015506      0.020402
Li	      2.19924      2.07238      4.03291         0.029320      0.068594      0.004690
Li	      4.28992      4.13871      4.06771        -0.028538     -0.040656      0.039957
Li	      4.25382      8.34563      4.17806         0.000021      0.066867     -0.024884
Mn	      0.11580      2.00562      2.06348        -0.065496      0.056548      0.010098
V	      6.35916      6.22751      8.26671        -0.068758     -0.019356     -0.130704
Cr	      4.26015      2.04368      6.04675        -0.071465      0.059673      0.032940
Cr	      2.09229      6.20658      4.10340        -0.166994      0.120114      0.151315
Cr	      8.44697      8.35353      8.23323         0.048408     -0.052871     -0.027865
Fe	      4.15611      2.21858      2.15137         0.217463     -0.211656     -0.085863
Fe	      4.25002      6.29689      6.06022        -0.103333     -0.065980     -0.007713
Co	      6.45737      4.13423      6.03989         0.094130     -0.391839      0.193449
Co	      2.12279      4.17810      6.09738         0.047603     -0.073183      0.001609
O	      2.25062      2.09008      2.00701        -0.250432      0.021001     -0.024805
O	      4.29803      4.18232      2.03806         0.007432      0.156116      0.022611
O	      4.29140      2.07312      4.06476        -0.007854     -0.005447      0.174255
O	      6.37081      4.15176      4.26440         0.116800      0.081611      0.031433
O	      6.24986      2.07589      6.23926         0.075481      0.130552      0.071080
O	      8.42047      4.26347      6.14622        -0.332329      0.067047     -0.078333
O	      2.09409      4.22606      4.19812         0.010267     -0.018515      0.118970
O	      4.16014      6.24538      4.05975         0.115203     -0.022758     -0.153380
O	      4.14298      4.15962      6.17860         0.118091     -0.014502     -0.055285
O	      6.39279      6.32598      6.15372         0.025813     -0.020416     -0.094942
O	      6.22895      4.16834      8.03229         0.064278     -0.202478     -0.138339
O	      8.43533      6.31617      8.15968         0.180405      0.017027     -0.106901
O	      2.24327      6.10459      6.07992         0.005260      0.025706      0.055973
O	      4.43994      8.26136      6.23129        -0.036563      0.046922     -0.016759
O	      4.30442      6.21179      8.12030        -0.269641      0.042785     -0.088966
O	      6.40626      8.23981      8.09699        -0.054610      0.314769     -0.077705
O	      6.47443      6.21784     10.14724         0.257526     -0.116648      0.365791
O	      8.50658      8.22788     10.17754         0.000301      0.030429      0.047555
