# total energy = -223.03872703 eV
 
CRYSTAL
PRIMVEC
0.004489 6.311815 6.455457 
6.282221 0.054298 6.405895 
4.185870 4.172389 0.038179 
PRIMCOORD
36 1
Li	      8.30615      2.14631      6.41278        -0.046092     -0.043515     -0.039983
Li	      8.28562      4.30942      8.67557         0.058417      0.007532      0.025859
Li	      2.08898      2.25933      4.33850         0.039381      0.060960      0.032703
Li	      8.31049      6.31125      6.57029         0.009942      0.000515     -0.028345
Li	      6.31353      4.28129      6.63709         0.039490      0.018613      0.000081
Li	      6.41443      4.27781     10.49118         0.005443      0.015238      0.094778
Li	      2.22797      4.22984      6.43555        -0.005118     -0.003393      0.019692
Li	      4.38320      4.14814      8.51223        -0.037969      0.028938      0.030375
Li	      6.43597      6.16667      8.53806         0.007015      0.067856      0.008510
Mn	      2.19462      6.30790      4.28557        -0.023035      0.008824      0.066583
V	     10.34821      4.19011      6.38221         0.014026      0.038906     -0.043899
Cr	      8.29980     10.40383     10.74372        -0.002649      0.063538     -0.052957
Cr	      6.20517      8.35989     10.68335        -0.040993     -0.048825     -0.017361
Cr	      4.41544      6.32641      6.46654         0.149226     -0.007392     -0.079506
Fe	      2.04395      6.31574      8.48654        -0.025713     -0.056906      0.065716
Fe	      4.05685      2.13356      2.16898         0.091257      0.044640      0.006799
Cu	      6.30260      2.27402      8.55055         0.037397     -0.090774      0.010210
Cu	      4.21250      4.23861      4.45383         0.046573     -0.023206      0.001676
O	      6.35808      4.18121      8.57758         0.011274      0.091723      0.042443
O	      2.05663      2.00611      2.17983        -0.068383      0.107186     -0.059270
O	      4.18213      4.20503      2.02849        -0.074968     -0.041904     -0.034852
O	      4.16531      1.93919      4.17509        -0.023297     -0.117159     -0.020188
O	      6.24334      4.05054      4.17289        -0.012223      0.007739      0.032547
O	      6.22036      1.86924      6.25070        -0.019165      0.008704     -0.049563
O	      8.43204      4.15403      6.25209        -0.067695     -0.036262     -0.037385
O	      2.29442      4.39544      4.34940        -0.062821     -0.073276     -0.016673
O	      4.24803      6.52384      4.66899         0.029941      0.106465      0.123389
O	      4.27849      4.42266      6.42957         0.026444      0.030578      0.140302
O	      6.20557      6.37200      6.54558        -0.072443     -0.020146      0.016364
O	      8.50636      6.34284      8.76787        -0.018389      0.047549     -0.073515
O	      2.06091      6.32652      6.42807        -0.026918      0.006867     -0.029029
O	      4.18924      8.52643      6.61256        -0.033213     -0.096565     -0.063032
O	      4.06189      6.38010      8.51251         0.040918     -0.051651     -0.051560
O	      6.10052      8.48851      8.68541         0.058978     -0.060343      0.037635
O	      6.15068      6.30351     10.78148        -0.030209      0.007514     -0.062582
O	      8.19259      8.37569     10.69543         0.025570      0.001432      0.004037
