# total energy = -227.33824914 eV
 
CRYSTAL
PRIMVEC
0.043317 6.332176 6.233943 
6.296397 0.012165 6.265122 
4.213837 4.258530 -0.008054 
PRIMCOORD
36 1
Li	      4.29569      8.33946      8.40315         0.030905     -0.095801      0.014164
Li	      4.19685      0.09957      4.08879         0.031365      0.045699     -0.014275
Li	      2.23154      2.20905      4.22591         0.057611      0.110357     -0.046409
Li	      4.13865      4.10903      4.26477        -0.057625     -0.069563      0.001129
Li	      4.10737      2.19813      6.18516         0.038971     -0.000512     -0.042116
Li	      2.12062      6.27604      4.17170        -0.031794     -0.103897      0.050853
Li	      6.40063      8.35678      6.17954        -0.029379     -0.027814     -0.094020
Li	      4.30294      6.33195      6.28997        -0.000625      0.035223     -0.012109
Li	      6.26174      6.44255      8.22128        -0.080549      0.053720     -0.062676
Mn	      6.24595      2.10211      4.16448        -0.051243      0.003480     -0.058425
V	      4.17503      6.34543      2.19650        -0.562338     -0.132176     -0.077963
Cr	      2.16207      8.44403      6.24320         0.058978      0.032737      0.006767
Cr	      6.39214     10.59112      8.35199         0.038105     -0.014796      0.052199
Cr	      6.34631      4.28356     10.39875         0.122525      0.067017     -0.039128
Fe	      4.26413     10.54600      6.21607        -0.211450     -0.007073      0.096526
Fe	      6.28254      4.45812      6.12863         0.163211     -0.185318      0.093856
Fe	      4.16689      4.26719      8.23152         0.026846      0.077821      0.045691
Cu	      2.11691      4.27374      2.14229        -0.040432      0.015646     -0.168995
O	      2.03607      2.02499      2.02499        -0.240090     -0.125182      0.059771
O	      4.29915      4.39690      2.03021        -0.035442      0.564715      0.166402
O	      4.39974      2.10817      4.15763        -0.040505      0.009413      0.031463
O	      6.32301      4.18320      4.17429         0.027757     -0.036291     -0.117870
O	      6.39853      2.11723      6.36397        -0.050152     -0.001534      0.153016
O	      8.41501      4.14962      6.42609         0.020843     -0.026114     -0.288554
O	      2.00507      4.24927      4.05368         0.043742      0.038231      0.498806
O	      4.25963      6.48473      3.98059        -0.106022     -0.066090     -0.175225
O	      4.31872      4.24351      6.28409        -0.066636     -0.042648     -0.123647
O	      6.35440      6.29783      6.22650         0.007772      0.260733      0.001808
O	      6.20551      4.14438      8.34088         0.017932     -0.210681      0.038936
O	      8.57826      6.42097      8.30625         0.960771     -0.147911      0.114897
O	      2.06118      6.42657      6.32767         0.067338      0.020182     -0.000022
O	      4.16908      8.54837      6.12833         0.003113     -0.102320      0.080051
O	      4.15635      6.24796      8.32860         0.040875      0.136656     -0.021549
O	      6.40839      8.55236      8.31523        -0.179567     -0.092533     -0.022854
O	      6.32548      6.31305     10.52016        -0.013896      0.059990     -0.139687
O	      8.38597      8.44729     10.45309         0.039084     -0.043366     -0.000812
