# total energy = -137.44051611 eV
 
CRYSTAL
PRIMVEC
2.036131 2.056792 -0.002344 
8.251237 -6.283976 10.614659 
2.077126 -2.091662 -4.255818 
PRIMCOORD
24 1
Li	      2.99443     -0.98734     -3.29330         0.037302     -0.020663      0.014099
Li	      2.99622      1.09872     -1.20545         0.008438      0.005368      0.017488
Li	      5.19252     -1.14794      3.24613        -0.033140      0.033035     -0.013983
Li	      7.19508     -3.17228      7.46900         0.009994     -0.011168     -0.004508
Li	      5.16003     -3.15924      1.13923        -0.029079      0.033464     -0.016556
Li	      7.29856     -5.31994      5.40361         0.018348     -0.024848      0.026485
Mn	      3.08150     -1.06258      1.04930        -0.014919      0.003951     -0.012842
Mn	      5.16968     -3.15932      5.32268         0.011163     -0.005771      0.022690
Mn	      5.13609     -1.08363     -1.08284        -0.012971      0.005193     -0.004551
Ni	      9.28817     -7.31533      5.26974         0.010971     -0.007854     -0.003902
Ni	      7.23344     -3.18705      3.20159         0.001390      0.003386      0.006120
Ni	      9.27490     -5.24344      7.40599         0.011016     -0.009201      0.009373
O	      5.05990     -3.04065     -0.99314         0.010308     -0.038997     -0.029654
O	      5.04910     -0.97952      1.10913        -0.009557     -0.012624      0.059608
O	      7.11714     -3.04677      5.29773        -0.047033      0.036512      0.064733
O	      9.22549     -5.17408      9.40667        -0.117660     -0.192144      0.303262
O	      7.22859     -5.22986      2.99616         0.074035     -0.074141     -0.080608
O	     11.18197     -5.24171      7.36132         0.072995     -0.222743     -0.099209
O	      3.18090     -1.19116     -1.14475        -0.018242      0.037743      0.058323
O	      3.16486      0.89630      1.00656         0.042868     -0.033698     -0.053083
O	      7.31926     -3.28316      1.07983         0.046742     -0.031973     -0.070994
O	      9.31148     -5.30922      5.40743         0.097132      0.198794     -0.360047
O	      5.18313     -3.18230      3.36276        -0.087836      0.090951      0.090024
O	      7.38214     -5.25314      7.44582        -0.082265      0.237429      0.077732
