# total energy = -232.34792161 eV
 
CRYSTAL
PRIMVEC
0.005993 6.182684 6.362071 
6.321508 0.009721 6.358542 
4.216419 4.121453 0.004252 
PRIMCOORD
36 1
Li	      6.35451      6.17778     12.65995         0.019310      0.024028     -0.058670
Li	      6.37293     10.28649      8.52270        -0.002820     -0.009321      0.033566
Li	      4.22385      6.14735     10.54567         0.003938      0.013601     -0.015995
Li	      6.39448      8.22679     10.55256         0.037937     -0.015339     -0.037677
Li	      2.12884      4.11381      2.09761        -0.001465     -0.012290     -0.068344
Li	      2.09869      2.05195      4.18767        -0.000831     -0.017086     -0.022533
Li	      8.38167      6.22402     10.63046        -0.005377      0.015592      0.052358
Li	      4.14548      6.20120      6.42612        -0.027371     -0.014757      0.093381
Li	      8.40572      8.31734      8.59023        -0.017759      0.049992      0.045203
Mn	      2.08969      4.21726      6.37281         0.007168      0.009502      0.151336
V	      2.11030      8.16428      6.33119        -0.019156      0.024109     -0.050620
Cr	      4.20514      4.15160      4.24745         0.071197     -0.009846     -0.031972
Cr	      4.25351      2.01008      6.31924         0.006674     -0.034252     -0.051209
Cr	      6.35484      6.19008      8.51052        -0.034187      0.068765      0.034112
Fe	      4.15051      2.02717      2.19152         0.057420      0.097578     -0.033526
Fe	      4.18475      6.15744      2.17192         0.057619     -0.032253     -0.116370
Fe	      6.33676      4.14930      6.24670        -0.001832     -0.004499      0.063352
Fe	     10.50182      8.29463     10.61800         0.057079     -0.078364      0.068390
O	      2.11584      2.06931      2.01570        -0.078453     -0.000373      0.029615
O	      4.17992      4.12657      2.24702        -0.019327     -0.043404      0.025382
O	      4.20849      2.13866      4.23205        -0.025360      0.031856      0.112661
O	      6.21479      4.13354      4.33226        -0.067821      0.002755     -0.146452
O	      6.28822      2.09104      6.46127        -0.053420     -0.027401     -0.021174
O	      8.31597      4.10932      6.32246         0.080731      0.057271      0.033079
O	      2.12623      4.13436      4.45293        -0.000592     -0.014469     -0.045906
O	      4.23923      6.20409      4.12829        -0.022728     -0.029437      0.097227
O	      4.29595      4.04937      6.28018        -0.024035      0.004942     -0.017121
O	      6.45016      6.18446      6.45066        -0.012696      0.082605      0.007795
O	      6.33329      4.12865      8.52276         0.018794      0.017893     -0.091586
O	      8.45571      6.18421      8.33622        -0.069230      0.007478     -0.010803
O	      2.11246      6.18656      6.39419        -0.025658     -0.065235     -0.004270
O	      4.18040      8.25256      6.34796         0.031838     -0.004202      0.044354
O	      4.33752      6.27947      8.49307         0.037237     -0.122181     -0.023245
O	      6.25844      8.21147      8.34632         0.036488     -0.030748     -0.044773
O	      6.36849      6.12303     10.48485         0.014689      0.065614     -0.000199
O	      8.51972      8.23885     10.69908        -0.028001     -0.008123      0.000633
