# total energy = -224.33274483 eV
 
CRYSTAL
PRIMVEC
0.010197 6.404128 6.245865 
6.156969 0.003679 6.252036 
4.104310 4.273141 0.002947 
PRIMCOORD
36 1
Li	      4.13447     10.50337      6.28709        -0.024575     -0.021214      0.029810
Li	      2.22491      8.46634      6.30080        -0.019434     -0.019964     -0.042134
Li	      2.09826      6.47862      8.22920        -0.036308     -0.091953     -0.059736
Li	      4.02471      8.43489      8.25384         0.005326     -0.057954      0.049731
Li	      4.13332      6.40318     10.37016         0.027952      0.003288      0.011789
Li	      6.10283      6.35357      4.08985        -0.013955     -0.075700      0.003057
Li	      4.11520      4.32735      4.09663         0.000229      0.013356     -0.023631
Li	      4.13062      8.53147      4.33469        -0.022823     -0.061367     -0.030074
Li	      4.05393      6.55418      6.34460         0.065145      0.001675     -0.010926
Mn	      4.16602      6.33161      2.12175         0.101966      0.255720     -0.016356
Mn	      8.15982      6.36335      6.22727         0.010803      0.079261     -0.028715
V	      6.08323      2.23863      4.10832         0.067018     -0.063405     -0.030134
Cr	      2.06009      6.41181      4.20176         0.028794      0.110832     -0.031869
Cr	      6.08760      8.60142      6.23614         0.063776     -0.063471      0.019329
Cr	      4.15346      4.35263      8.35860        -0.029639     -0.022695     -0.019899
Co	      6.15146      4.24821      6.23880        -0.016396      0.016432     -0.080291
Cu	      2.08547      4.17005      2.12790         0.006362     -0.098237      0.041261
Cu	      6.12291      6.41921      8.37886         0.088324      0.019176     -0.015906
O	      4.21363      6.28330      8.33442        -0.136932      0.024223      0.033420
O	      1.90417      2.02336      2.07056        -0.118353     -0.043724     -0.003981
O	      3.99304      4.47571      2.05081         0.053131     -0.108774      0.018472
O	      4.28350      2.13387      4.09806        -0.111431     -0.012578      0.001072
O	      6.18240      4.15992      4.33688         0.032234      0.098774      0.054782
O	      6.06525      2.28169      6.23037         0.026537     -0.011907      0.108095
O	      8.07533      4.42207      6.32423        -0.039829     -0.131792     -0.055219
O	      2.05306      4.39419      4.21695        -0.037577     -0.101072     -0.005950
O	      4.06823      6.43248      3.98958         0.021045     -0.012466     -0.019350
O	      4.13369      4.10380      6.33377        -0.014829      0.040473      0.001029
O	      6.23374      6.33170      6.32070        -0.038696     -0.007711     -0.114662
O	      6.18227      4.07607      8.19992         0.026677     -0.006538      0.029954
O	      8.27317      6.57735      8.41177         0.077519      0.153630      0.023028
O	      2.08244      6.27631      6.15490         0.031080      0.030621      0.052302
O	      4.18382      8.52516      6.28927        -0.059235      0.000671     -0.015766
O	      6.26306      8.71264      8.34792        -0.028881      0.110091      0.015566
O	      6.21559      6.58215     10.34981        -0.027827      0.012976      0.119931
O	      8.09782      8.48233     10.38912         0.042802      0.041327     -0.008030
