# total energy = -222.77314763 eV
 
CRYSTAL
PRIMVEC
-0.019566 6.413599 6.179773 
6.235309 0.034093 6.125748 
4.165902 4.248808 0.013824 
PRIMCOORD
36 1
Li	      2.14380      8.41371      6.25348         0.027337     -0.032415     -0.019304
Li	      2.22927      6.39805      8.16532         0.014814     -0.105811     -0.027564
Li	      4.11884      8.29326      8.13637         0.099954      0.015412      0.043298
Li	      4.13456      6.42130     10.07921         0.014086      0.005564     -0.020375
Li	      8.28251      4.27091      8.16174         0.058909      0.016110      0.032691
Li	      6.18233      8.53561      6.33433         0.009480      0.067954      0.012405
Li	      4.13578      6.47305      6.35607        -0.113604     -0.020099     -0.028854
Li	      4.10121      4.49826      8.13693        -0.106567      0.063129      0.011539
Li	      6.04422      6.51510      8.11753        -0.090814      0.133983      0.062565
Mn	      4.13688      4.19324      0.07424         0.116451     -0.157695      0.008577
Mn	      6.28831      8.57158     10.14823        -0.109222      0.010370     -0.068797
V	      4.13696      4.21882      4.14280         0.005925     -0.089389     -0.084587
Cr	      6.27971      2.23692      8.17550         0.239127     -0.018153      0.099674
Cr	     10.35483      8.59029     10.25951        -0.023621      0.015206      0.051914
Cr	      8.27200      6.41607     10.23853         0.148100     -0.014177     -0.121141
Co	      8.32962      6.41283      6.18328        -0.195258     -0.342289      0.553191
Ni	      6.26207      6.37691      4.13483         0.071263      0.021450     -0.142493
Ni	      6.31119      4.35595      6.19216        -0.033333     -0.149434     -0.000509
O	      4.12936      6.42220      8.19223         0.030171     -0.037033     -0.046994
O	      1.92036      2.13753      2.10200        -0.301782      0.036099     -0.159565
O	      4.13952      4.42660      2.27905        -0.032234      0.154091     -0.122835
O	      4.17640      2.27154      4.19892         0.120304      0.314667     -1.155759
O	      6.11185      4.27585      4.16858         0.047710     -0.015961     -0.093968
O	      6.16421      2.11341      6.12656         0.080857      0.006917      0.098112
O	      8.40209      4.47803      6.13616         0.043182     -0.458101     -0.045329
O	      2.07300      4.31625      4.12934        -0.064868      0.048542     -0.024740
O	      4.10784      6.41955      4.10313        -0.029715      0.042493     -0.056314
O	      4.18798      4.18666      6.03383        -0.042463      0.469798     -0.088814
O	      6.42659      6.36066      6.13537         0.029862      0.145879      0.195893
O	      6.25274      4.13281      8.22641        -0.013625     -0.143109      0.082002
O	      8.51096      6.40010      8.14701         0.098817      0.068223      1.010685
O	      1.87904      6.38726      6.08431        -0.075841      0.024809      0.119231
O	      4.09135      8.66440      6.10376         0.005599     -0.033453     -0.002932
O	      6.19414      8.57630      8.34957         0.046017     -0.036297     -0.024380
O	      6.30449      6.34592     10.16682        -0.096259     -0.042679     -0.024478
O	      8.33272      8.41576     10.26729         0.021242      0.035401     -0.022046
