# total energy = -227.20385419 eV
 
CRYSTAL
PRIMVEC
0.009285 6.274375 6.352207 
6.109354 0.002177 6.358110 
4.072739 4.186673 0.001663 
PRIMCOORD
36 1
Li	      4.01378      4.13195      0.12349        -0.009173     -0.002863      0.060678
Li	      6.09185      4.21158      2.15660         0.059977      0.003573      0.034771
Li	      4.02566      2.22504      2.11711         0.014337     -0.012654      0.005892
Li	      8.12615      4.23092      4.32924        -0.031813      0.007603     -0.046129
Li	      2.08502      4.12237      2.03820        -0.012047      0.010435     -0.029589
Li	      4.07218      4.15975      4.12585        -0.000602      0.000767     -0.012328
Li	      4.10927      2.01838      6.29611         0.002375     -0.004083     -0.000797
Li	      4.13007      8.35078      4.32538         0.020254     -0.019911     -0.002461
Li	      4.07176      6.31728      6.36241         0.034147     -0.012568      0.103461
Mn	      6.01664      2.15240      4.24948        -0.086879      0.212178      0.063759
Mn	      4.09784      6.17010      2.08742        -0.030055     -0.127339     -0.007818
V	      6.02453      6.23154      8.41080         0.071189     -0.128672     -0.236963
Cr	      2.10295      8.36299      6.37315        -0.067338      0.249501     -0.021413
Cr	      2.08309      6.25106      4.22223         0.058692     -0.080750     -0.095534
Cr	      2.04928      4.26189      6.36765         0.041234     -0.080919     -0.096750
Co	      2.09572      2.09696      4.22554         0.024217      0.003137     -0.015217
Co	      4.08002      4.19198      8.47725         0.091466     -0.018584     -0.157903
Cu	      6.09097      4.17861      6.29481        -0.002210      0.117418     -0.154846
O	      1.92535      2.06965      2.04507        -0.004448     -0.022662      0.016167
O	      4.05163      4.34539      2.12700         0.030653      0.108008     -0.016851
O	      4.10784      2.09815      4.22155         0.052380     -0.007142     -0.018929
O	      6.07840      4.12725      4.30087         0.013666     -0.146893     -0.034451
O	      6.16780      1.96445      6.48946         0.010085     -0.132434      0.101293
O	      8.05113      4.06038      6.35389         0.070630     -0.221580     -0.013684
O	      2.05640      4.22603      4.35900        -0.007124      0.093483      0.120511
O	      4.09880      6.30977      4.04286        -0.075901      0.014891     -0.081920
O	      4.08712      4.20961      6.56853        -0.188166      0.006904      0.233139
O	      6.15313      6.42720      6.53093         0.015105      0.241211      0.152440
O	      6.01574      4.22993      8.44368        -0.094897     -0.037671      0.131511
O	      8.20349      6.37978      8.53344         0.048104      0.063063      0.061492
O	      2.08293      6.28054      6.20288         0.002499      0.037862      0.004579
O	      4.09049      8.39053      6.39442         0.024374     -0.007665     -0.017976
O	      4.16877      6.10136      8.49322        -0.093995     -0.035576      0.043797
O	      6.20253      8.30445      8.41107         0.005863     -0.001363     -0.055180
O	      6.17822      6.39146     10.34672        -0.010649     -0.052015     -0.015420
O	      8.04801      8.29460     10.59045         0.024049     -0.016690     -0.001329
