# total energy = -227.77597144 eV
 
CRYSTAL
PRIMVEC
0.008395 6.249394 6.176716 
6.209876 0.027783 6.157213 
4.168373 4.181739 -0.009791 
PRIMCOORD
36 1
Li	      2.01818      8.20745      6.17415         0.043100     -0.003190     -0.013178
Li	      2.09959      6.24941      8.15011         0.029690     -0.020718      0.049192
Li	      6.30532      8.29076     10.33102         0.022372      0.054271      0.022492
Li	      8.25983      4.28535      8.12705        -0.043476     -0.016006      0.002118
Li	      8.29183      6.28871      6.27129         0.032761      0.006008     -0.074551
Li	      6.21267      4.30824      6.20872         0.041274      0.037612      0.007778
Li	      8.18850      6.36593     10.24591        -0.020505     -0.024005     -0.014150
Li	      4.19805      6.20330      6.22304         0.005908      0.028132     -0.027378
Li	      6.35178      6.28597      8.12376        -0.006833      0.007292      0.018826
Mn	      4.20598      4.18731      4.13404         0.015398     -0.056408      0.017249
Mn	      6.20949      4.18022     10.24799        -0.021138      0.055258     -0.042420
V	      8.28730      4.20024      4.17208         0.042701      0.042633      0.070305
Cr	      4.11526      2.08829      2.02229         0.046617     -0.006708      0.023169
Cr	      6.20765      2.09189      8.13329         0.027491      0.001992      0.011976
Cr	      6.24156      8.35563      6.17743        -0.002186     -0.056162     -0.045150
Co	      6.25124      6.30303     12.32044        -0.025503      0.075004     -0.050778
Co	      6.23547      6.25963      4.11621         0.012558     -0.012537      0.059983
Ni	      8.27856      8.33728      8.17709        -0.028301      0.089046     -0.024618
O	      2.08954      2.07675      2.15258        -0.005909     -0.033760      0.014714
O	      4.13961      4.15849      2.05318         0.003400     -0.028851      0.092015
O	      4.02707      2.13541      4.03067        -0.005681      0.055129     -0.003442
O	      6.35129      4.31418      4.17222        -0.124341     -0.001177     -0.037163
O	      6.24864      1.96705      6.18957        -0.006027     -0.053321      0.025305
O	      8.42390      4.23939      6.00062         0.060467     -0.004211      0.081153
O	      1.95543      4.03788      4.15124         0.021184     -0.042333     -0.014240
O	      4.29353      6.17467      4.05391        -0.020697     -0.075376     -0.022780
O	      4.06576      4.21591      6.09424         0.037459     -0.034482     -0.170985
O	      6.22194      6.34923      6.04934        -0.018052      0.031314     -0.032297
O	      6.19809      4.09272      8.27902         0.083535      0.001674      0.029987
O	      8.40587      6.32207      8.23992        -0.013464     -0.110300      0.021251
O	      1.95734      6.17729      6.13326        -0.054840      0.001725      0.002844
O	      4.19423      8.43827      6.15495         0.001118      0.032859      0.008476
O	      4.18523      6.33132      8.40087        -0.005709      0.073120     -0.078824
O	      6.16693      8.35005      8.16936        -0.103802      0.037917     -0.016957
O	      6.16748      6.28958     10.40568        -0.012105      0.019770     -0.006153
O	      8.42181      8.49740     10.23421        -0.008466     -0.071210      0.116232
