# total energy = -229.46633871 eV
 
CRYSTAL
PRIMVEC
0.015783 6.332132 6.141799 
6.313745 -0.015157 6.173030 
4.190476 4.223273 0.009153 
PRIMCOORD
36 1
Li	      6.25506      4.18991      2.21126        -0.010813     -0.050918      0.100404
Li	      4.12128      0.08847      4.11849        -0.180120      0.031972      0.010459
Li	      6.23266      2.20868      4.07480        -0.011021      0.212304     -0.015224
Li	      0.11234      2.04100      2.06487         0.006342      0.017747      0.055856
Li	      2.14993      4.12715      2.03060        -0.032573     -0.010795     -0.008418
Li	      2.20455      2.01614      4.02541         0.054612     -0.192655      0.046552
Li	      4.27812      4.15317      4.06388         0.187979     -0.025855     -0.008639
Li	      2.15087      4.26770      6.21941         0.011465      0.027855     -0.001399
Li	      4.19927      4.25995      8.20992         0.013945      0.021989      0.031541
Mn	      4.25501      2.14362      6.13636        -0.048038      0.032655     -0.061146
Mn	      4.21896      6.28793      6.15930        -0.004227     -0.163072     -0.071114
V	      8.41912      6.24256     10.19918         0.100438      0.125769     -0.027444
Cr	      8.37290      2.09375      6.20871        -0.126648     -0.027129     -0.026663
Cr	      6.31256      4.18721     10.18882        -0.138396     -0.159588     -0.219365
Cr	      6.28829      6.38272      8.21055         0.052663     -0.179437      0.054156
Co	      4.17607      4.21787      0.07169        -0.423560     -0.084922     -0.051300
Co	      4.19574      2.14596      2.15127        -0.128598     -0.050334      0.046123
Co	      6.33299      4.20443      6.06195        -0.097157      0.274296      1.191161
O	      2.25725      2.06731      2.00265         0.118406      0.038144      0.013760
O	      4.21606      4.04829      1.98718         0.089881     -0.272479      0.552175
O	      4.20689      2.12569      4.24104         0.037689      0.000271      0.046641
O	      6.32322      4.22265      4.25850         0.041712     -0.051348      0.008125
O	      6.30170      2.14579      6.25162         0.142684      0.682778     -0.194085
O	      8.46284      4.10885      6.18842        -0.964976     -0.091538     -0.306724
O	      2.01937      4.42753      4.09219        -0.004483      0.015144      0.026173
O	      4.10460      6.37854      4.12607        -0.079428      0.133187     -0.042407
O	      4.25007      4.36255      6.19231         0.670172     -0.058370     -0.180842
O	      6.41781      6.33373      6.21538        -0.001325     -0.547659     -0.192706
O	      6.31422      4.33934      8.19927         0.030879      0.089249     -0.162342
O	      8.31772      6.38762      8.22032        -0.027754      0.006107      0.081158
O	      1.99759      6.39813      6.04198         0.621614      0.092013     -0.249304
O	      4.09845      8.28663      6.04047         0.043477      0.106570      0.012054
O	      4.27810      6.42130      8.13353         0.029669      0.282884      0.010717
O	      6.13261      8.37385      8.22160        -0.076865     -0.007439     -0.015344
O	      6.39327      6.23068     10.27022         0.008939     -0.091625     -0.537261
O	      8.46908      8.25319     10.29420         0.093416     -0.125772      0.084669
