# total energy = -221.63989054 eV
 
CRYSTAL
PRIMVEC
0.025767 6.185731 6.484809 
6.114004 0.032040 6.478697 
4.089494 4.133259 0.008222 
PRIMCOORD
36 1
Li	      2.06475      2.09931      0.04090         0.004638     -0.014989     -0.044592
Li	      2.17487      6.26349      8.47105        -0.039798      0.094930     -0.053702
Li	      4.02421      8.11359      8.51578        -0.045189     -0.006969     -0.082170
Li	      4.14990      6.21655     10.58556        -0.012642      0.007182     -0.083183
Li	      2.08558      4.11217      2.11442         0.006578     -0.049644      0.032862
Li	      4.01781      4.17612      4.60203         0.023673      0.046495      0.010838
Li	      6.15330      8.26591      6.50641        -0.104100      0.039676     -0.061332
Li	      4.12396      6.11603      6.67137        -0.036783      0.097138     -0.043033
Li	      6.00330      6.17047      8.49560         0.058475     -0.002141      0.016317
Mn	     10.18157      4.15838      6.49708         0.095673     -0.027316     -0.157642
Mn	      0.05227      2.05270      2.16389         0.100234     -0.099475     -0.007940
V	      6.01937      2.27780      4.17214        -0.005105     -0.050728      0.092706
Cr	      2.07887      2.07378      4.33218         0.017128     -0.018779     -0.252129
Cr	     10.18511      8.30902     10.86832        -0.058622      0.017749      0.109141
Cr	      2.06659      6.15657      4.36498         0.014592     -0.056048      0.059528
Cu	      6.17489      4.19292      6.55096         0.118793     -0.134034     -0.137401
Ni	      8.16498      6.22682      6.54495         0.090986     -0.000364      0.114488
Ni	      4.11049      4.21456      8.58186        -0.087803     -0.048888      0.182360
O	      4.10255      6.18116      8.61419        -0.007016      0.051810      0.014938
O	      1.96476      2.07407      2.34843         0.042450     -0.031247     -0.019974
O	      4.13522      4.24308      1.88537        -0.032926      0.086088      0.046463
O	      4.18656      2.10801      4.32169        -0.189676      0.060113      0.053507
O	      6.11840      4.03984      4.24917        -0.012269      0.151447     -0.024245
O	      6.12056      2.04426      6.28800         0.153566      0.086029      0.017583
O	      8.22095      4.21009      6.47410        -0.233036     -0.169179      0.084918
O	      1.98021      4.09386      4.38266         0.104483     -0.012364      0.059400
O	      4.11921      6.26232      4.42098        -0.027387     -0.058607      0.054606
O	      4.20190      4.07931      6.55019         0.036591      0.192703      0.024817
O	      6.18578      6.15100      6.33939        -0.163897      0.023370      0.206682
O	      6.13280      4.04900      8.85936         0.106031      0.009418      0.048126
O	      8.28637      6.22581      8.77437        -0.029270      0.021456     -0.016018
O	      1.92771      6.18529      6.35375         0.107760     -0.028501     -0.019776
O	      4.06614      8.42917      6.39850        -0.008383     -0.084544      0.032201
O	      6.13405      8.20885      8.92826        -0.029093     -0.045914     -0.207479
O	      6.18005      6.24095     10.94016        -0.048986     -0.100449     -0.019801
O	      8.07301      8.19764     10.80028         0.090330      0.054574     -0.031066
