# total energy = -221.19832038 eV
 
CRYSTAL
PRIMVEC
-0.005293 6.216393 6.437197 
6.058284 0.024779 6.407897 
4.044510 4.130456 0.010015 
PRIMCOORD
36 1
Li	      4.03920      2.05659      2.16401         0.078312      0.057958      0.109327
Li	      8.10353     10.32732     10.72539        -0.046906      0.011272     -0.034714
Li	      8.05703      4.21142      8.53138         0.060361     -0.028286     -0.027896
Li	      4.01294      4.16402      4.29522         0.025772     -0.033550      0.049441
Li	      6.02383      4.16276      6.52912        -0.121618      0.062017      0.047256
Li	      6.01436      4.15790     10.62786        -0.019525      0.009283     -0.067141
Li	      8.10916      6.27744     10.59248         0.051245     -0.032778     -0.024915
Li	      4.04437      6.18250      6.45576         0.017381     -0.159691      0.040092
Li	      8.12006      8.28337      8.63862        -0.071542      0.076960     -0.073844
Mn	      2.03032      2.05792      4.26191         0.315364      0.054413      0.121691
Mn	      6.01453      6.15760      8.60770        -0.291192      0.270106     -0.273877
V	      2.02759      4.14940      6.36361         1.180081     -0.091306      0.294939
Cr	      8.13565      8.33918     12.81333        -0.096071     -0.243633     -0.215511
Cr	      2.03367      0.01315      2.15352         0.283066     -0.610161      0.180235
Cr	      6.04759      8.29468     10.69764        -0.169485      0.282762     -0.262378
Cu	     10.08872     10.35644     12.84297         0.089731     -0.041845      0.083452
Cu	     10.03731      6.30990      8.64855        -0.021551     -0.109428     -0.263522
Ni	      8.07194      6.15426      6.46171        -0.101594      0.285822     -0.097802
O	      6.04125      4.29972      8.55274         0.051792     -0.033829      0.054365
O	      2.03265      1.97286      2.03457        -0.386614      0.538577     -0.010595
O	      4.21903      4.13808      2.14852        -0.321000      0.036377     -0.257974
O	      3.99105      2.08969      4.39115         0.103675     -0.065426     -0.106263
O	      6.08418      4.16787      4.14476        -0.017874     -0.054121     -0.049430
O	      6.09433      2.05878      6.33547         0.305323      0.005356      0.053628
O	      8.16260      4.08877      6.43615        -0.031200     -0.106798      0.007691
O	      2.00563      4.02014      4.48295        -0.016852     -0.037627     -0.358282
O	      4.16430      6.20019      4.17393        -0.269587      0.009883      0.146175
O	      3.86028      4.14181      6.46461        -0.485505      0.066139     -0.099190
O	      6.01920      6.30648      6.55630        -0.228241     -0.251811      0.138788
O	      7.98196      6.21148      8.50007         0.450976     -0.028470      0.275806
O	      2.01800      6.18104      6.51639        -0.098060      0.401695      0.093283
O	      4.12501      8.33958      6.42763        -0.495630      0.026189      0.102793
O	      4.02403      6.24382      8.54008         0.230057      0.071931      0.019132
O	      6.05105      8.31375      8.59686        -0.069778     -0.128275      0.176453
O	      6.05778      6.33112     10.50151         0.005689     -0.196824      0.072402
O	      8.00270      8.28421     10.84339         0.110998     -0.012881      0.156386
