# total energy = -222.18091313 eV
 
CRYSTAL
PRIMVEC
-0.036759 6.311507 6.266669 
6.239084 -0.009285 6.238762 
4.177528 4.207252 -0.024342 
PRIMCOORD
36 1
Li	      0.03811      6.27244      6.21473         0.031016     -0.034371      0.038984
Li	      2.09390      6.21697      8.27131         0.053961     -0.061818     -0.067286
Li	      4.17233      8.35437      8.32194         0.017180     -0.115570     -0.043660
Li	      0.03990      2.15053      2.13340         0.034862      0.047230     -0.008215
Li	      4.11840      2.16846      6.21638        -0.022193     -0.000720      0.080898
Li	      8.24435      6.35026     10.45552         0.053070     -0.007383     -0.004792
Li	      6.23410      8.42660      6.44537        -0.035908      0.009987      0.081062
Li	      8.21326      8.44681      8.31634        -0.094784      0.056859      0.048552
Li	      6.15920      6.35364      8.34424        -0.068089      0.042632     -0.062641
Mn	      2.07584      2.04773      0.06092         0.115652     -0.174215      0.116595
Mn	      2.10371      2.09562      4.12399        -0.083078      0.062103     -0.043177
V	      8.42758      4.41951      8.37396        -0.175184      0.088402     -0.363610
Cr	      6.16648      8.32658     10.32378        -0.013456     -0.045030     -0.002967
Cr	      6.22869      4.17383      6.29521        -0.037581      0.042917      0.168838
Cr	      4.11822      6.31480      6.24187        -0.040817      0.065092     -0.083887
Cu	      4.11697      6.25222     10.31396        -0.124856     -0.131413     -0.208720
Cu	      4.18263      4.20366      4.14341         0.016432      0.021053      0.048585
Cu	      6.18085      4.27666     10.38899         0.125248     -0.048761     -0.024749
O	      4.15818      6.26311      8.10993         0.025686     -0.023312      0.429422
O	      6.11914      6.29958     10.43165        -0.104052      0.045422      0.085070
O	      2.09027      2.18034      2.18223         0.010329      0.082158      0.267934
O	      4.00067      4.22014      2.12840         0.132405      0.007326      0.080703
O	      4.12670      1.89244      4.20601         0.051577     -0.056042     -0.024060
O	      6.20940      4.07987      4.23149         0.152761      0.020296     -0.015486
O	      6.34147      2.14434      6.19648        -0.107711      0.061831     -0.023573
O	      8.26746      4.04601      6.48592        -0.018251      0.080869      0.025922
O	      2.19043      4.26657      4.01917        -0.328262      0.044892      0.164120
O	      4.28079      6.50648      4.19910        -0.034379     -0.143543     -0.109058
O	      4.22205      4.27620      6.13972         0.092689     -0.108775     -0.152642
O	      6.18229      6.20837      6.10050         0.111807     -0.093009     -0.062897
O	      6.42897      4.21644      8.32264         0.125699     -0.006562     -0.047216
O	      8.34950      6.15964      8.27237         0.065318     -0.061654      0.014282
O	      2.11680      6.42671      6.22649        -0.141319      0.050755     -0.026700
O	      3.99934      8.35204      6.17789         0.039011      0.088367     -0.070890
O	      6.18789      8.39782      8.41083        -0.017260     -0.015288     -0.043212
O	      8.13412      8.48861     10.42765         0.192475      0.209273     -0.161529
