# total energy = -136.81306585 eV
 
CRYSTAL
PRIMVEC
2.162613 2.041002 -0.015892 
-2.176480 2.022852 4.074033 
8.644202 -8.226990 8.185604 
PRIMCOORD
24 1
Li	      0.96773      1.09530      0.94211         0.232449     -0.241218      0.229827
Li	      0.95941      3.10758      2.97063         0.231680     -0.221930      0.228138
Li	      3.35738     -1.10406      5.11161        -0.060965      0.078579     -0.067344
Li	      5.39806     -1.04604      3.13299        -0.078382      0.075818     -0.078363
Li	      5.40366     -3.12533      9.22155        -0.169212      0.128736     -0.143164
Li	      5.54522     -5.20052      7.15441        -0.169537      0.148428     -0.163243
Mn	      1.06215      1.00177      5.08274         0.040389     -0.052609      0.068204
Mn	      3.22749      1.01078      3.04194         0.050057     -0.050034      0.059970
Mn	      5.40641     -1.08836      7.15736        -0.058920      0.074920     -0.110301
Ni	      5.42197     -3.12329      5.13026        -0.038950      0.045107     -0.023493
Ni	      7.53484     -5.16287      9.17812        -0.019576     -0.020633      0.019836
Ni	      7.53145     -3.12638     11.20109         0.022739      0.005400     -0.030425
O	      3.31258     -0.95481      2.97171         0.066241     -0.038093      0.055043
O	      1.10208     -0.94676      5.01266         0.117168     -0.042929      0.017123
O	      5.20906     -3.04433      7.17509         0.070389     -0.041857      0.191531
O	      5.34744     -1.08485      9.07844         0.157279     -0.217827      0.042020
O	      7.51629     -5.08218     11.09748        -0.337602     -0.488848      0.850245
O	      7.54375     -7.07783      9.09365        -0.314772     -0.878104      0.514599
O	      1.01595      0.91990      3.13046        -0.160922      0.157636     -0.174205
O	      3.19968      0.93167      1.09037        -0.203116      0.156455     -0.139193
O	      3.42041     -1.16333      7.14505         0.083926     -0.090038     -0.089829
O	      3.29793     -3.12589      5.23576        -0.039831      0.085925      0.161228
O	      7.56414     -5.22812      7.25975         0.277969      0.457126     -0.887338
O	      7.54485     -3.26040      9.25586         0.301499      0.969990     -0.530865
