# total energy = -228.44550424 eV
 
CRYSTAL
PRIMVEC
-0.019942 6.370498 6.301468 
6.189840 0.011701 6.270303 
4.139441 4.238591 -0.005321 
PRIMCOORD
36 1
Li	     10.19834      4.32382      6.35532         0.067115      0.066202      0.025217
Li	      8.19264      2.34962      6.33983         0.008572      0.002786      0.008955
Li	      8.22642      4.27917      4.34429         0.043387      0.036355      0.012408
Li	      0.12649      2.15162      2.04852         0.084768      0.111911     -0.025703
Li	      2.13193      4.16423      2.01803        -0.069505      0.000283      0.033352
Li	      2.06903      2.08133      4.06724        -0.003727     -0.037763     -0.049144
Li	      4.17152      4.17694      4.11180        -0.021870      0.016468     -0.010356
Li	      6.32224      4.20551      6.24434        -0.034156     -0.001789      0.080756
Li	      8.23338      8.49326      8.40440        -0.001038     -0.040302      0.003020
Mn	      4.08346      2.16856      2.14171        -0.163830      0.013203      0.022001
Mn	      2.05008      4.24061      6.24788         0.085630     -0.046473      0.062682
V	      6.17983      6.23332      8.42178        -0.123229      0.149678     -0.087162
Cr	      8.29577      6.29673      6.25685        -0.024276      0.128883      0.207416
Cr	      8.25030      6.38968     10.46479        -0.055186      0.034825     -0.198588
Cr	      4.14570      6.32328      6.23639         0.010686     -0.079725     -0.076497
Fe	      6.24692      2.29086      4.27056         0.032037     -0.198140     -0.117953
Co	     10.28657      8.49431     10.45716        -0.061543     -0.031469      0.041020
Cu	      1.96906      0.13415      2.10939         0.000390      0.189023     -0.068071
O	      2.20087      2.18140      2.07602         0.146241      0.046013     -0.000662
O	      4.19046      4.07687      2.07817        -0.094245     -0.062756     -0.000661
O	      4.23316      2.10626      4.28714        -0.078862     -0.004509     -0.032886
O	      6.22537      4.16682      4.04595         0.029066      0.288343      0.047068
O	      6.13298      2.17298      6.22861        -0.031958      0.033343      0.050995
O	      8.25594      4.38764      6.29530         0.005724     -0.122345      0.007307
O	      1.91922      4.35762      4.20924        -0.043012     -0.035122      0.136455
O	      4.06043      6.51294      4.22751         0.005578      0.001344      0.018702
O	      3.95979      4.26988      6.27897        -0.012152      0.014818     -0.035144
O	      6.18989      6.32312      6.38387        -0.065501     -0.040726     -0.077362
O	      6.10071      4.36059      8.54258         0.109493     -0.117651      0.047169
O	      8.06917      6.39110      8.38765         0.185038     -0.052682     -0.030049
O	      2.15097      6.32681      6.23907         0.017644     -0.057768     -0.046253
O	      4.24837      8.35592      6.16187         0.089750     -0.024508     -0.122552
O	      4.22405      6.43954      8.26532        -0.025162      0.133178     -0.020866
O	      6.06857      8.30191      8.43296         0.010033     -0.134931      0.013301
O	      6.22275      6.26686     10.38666        -0.091028     -0.141156      0.181394
O	      8.25509      8.39847     10.49214         0.069131     -0.036838      0.000691
