# total energy = -229.38335359 eV
 
CRYSTAL
PRIMVEC
0.057247 6.384493 6.184545 
6.304203 0.047016 6.194264 
4.226900 4.286430 0.007957 
PRIMCOORD
36 1
Li	      2.13429      0.07038      2.11122         0.008292     -0.017075     -0.031012
Li	      8.27308      4.28651      4.13228        -0.038356     -0.037982      0.019294
Li	      0.13107      2.15065      2.01871         0.066010      0.009914      0.013692
Li	      6.29989      6.26990      4.10935        -0.017259     -0.107870     -0.006803
Li	      6.27495      4.37587      6.14526         0.002488      0.039701      0.007640
Li	      4.27229      8.52654      4.16749         0.009965     -0.032113      0.019206
Li	      2.16618      4.26851      6.18757        -0.003666      0.016072     -0.013861
Li	      4.29755      6.31518      6.23644        -0.003609     -0.042701     -0.013806
Li	      4.28227      4.37443      8.16416         0.035708      0.052886      0.024025
Mn	      8.38463      4.28255      8.27120         0.001958     -0.053093     -0.098780
Mn	      6.32634      6.43009      8.24394        -0.159117     -0.008221     -0.134467
V	      2.30816      6.42001      4.13717         0.202553      0.106779      0.182196
Cr	      4.27308     10.62716      6.18140         0.058038     -0.057733      0.060075
Cr	      4.24544      8.47890      8.24959        -0.143855     -0.064588     -0.081954
Cr	      6.33748      2.22106      4.13235         0.122588      0.090705      0.060735
Fe	      4.18578      2.30239      6.18296         0.015074     -0.125512      0.005133
Co	      2.11169      2.11713      0.03384         0.070821     -0.110399     -0.082007
Ni	      4.28076      4.29228      4.13991        -0.007024      0.059364      0.014049
O	      2.16630      2.08370      2.06502         0.117712      0.090424     -0.400929
O	      4.11340      4.15640      2.02378        -0.094031     -0.039032     -0.131129
O	      4.27571      2.16795      4.13849         0.054338     -0.047830     -0.048201
O	      6.31123      4.19315      4.10225         0.028433     -0.111488      0.008449
O	      6.25453      2.06176      6.18076         0.177751     -0.066689     -0.119493
O	      8.49936      4.40746      6.28458         0.061411     -0.097575      0.132768
O	      2.16481      4.43142      4.01021        -0.088977      0.042458     -0.042673
O	      4.10755      6.41799      4.08012        -0.183788      0.090312     -0.015824
O	      4.23490      4.21233      6.16206         0.016438      0.094580      0.097637
O	      6.41831      6.44699      6.33920        -0.047360      0.003352      0.179217
O	      6.43656      4.50668      8.28303         0.085985      0.116515     -0.001324
O	      8.32876      6.54505      8.29358        -0.112285     -0.072018     -0.007011
O	      2.06552      6.35730      6.08582        -0.085610      0.206554     -0.135538
O	      4.24589      8.63068      6.24213        -0.315341      0.104118      0.109291
O	      4.42424      6.46954      8.26217         0.214996      0.073124      0.005827
O	      6.27096      8.41292      8.32194        -0.047785     -0.103255      0.052299
O	      6.49741      6.52033     10.29112         0.037616      0.042265     -0.040534
O	      8.41080      8.46996     10.37361        -0.040112     -0.043948      0.413813
