# total energy = -230.39980015 eV
 
CRYSTAL
PRIMVEC
0.030712 6.100218 6.305823 
6.226798 0.013160 6.322954 
4.176222 4.103700 -0.015753 
PRIMCOORD
36 1
Li	      0.07204      6.03993      6.21079         0.016805      0.044599     -0.008248
Li	      4.16954      8.13522      8.33617        -0.030940      0.013331     -0.040962
Li	      4.21347      6.13310      2.19114         0.008316     -0.024481     -0.004168
Li	      6.14770      6.16069      4.33001        -0.016856     -0.009847      0.059202
Li	      8.27397      6.15956      6.27481        -0.025321     -0.030781      0.025971
Li	      4.18796      8.06831      4.29179        -0.013730     -0.018772     -0.007921
Li	      2.18712      6.10061      4.26876         0.006659      0.029385      0.011576
Li	      4.19053      6.17749      6.13484        -0.037447      0.048082      0.005155
Li	      6.21587      6.12539      8.38221         0.020995      0.002542     -0.004030
Mn	      2.04664      0.05815      2.02783        -0.032889      0.080010     -0.045644
Mn	      6.10850      8.10411      6.24155         0.007035      0.044654     -0.042459
V	      4.26291      3.97360      8.37214        -0.054608     -0.117882      0.041452
Cr	      4.18182      0.05435      4.26684         0.063430     -0.027153      0.011379
Cr	      6.28886      8.12724     10.56058         0.037652     -0.102434     -0.049264
Cr	      4.16480      4.14821      4.21855        -0.070986      0.047158      0.002537
Fe	      2.10703      4.04332      2.10471         0.001954      0.119571      0.020233
Co	      2.15644      8.11024      6.27064         0.086631     -0.044222      0.012261
Co	      6.26968      4.14042      6.32912         0.013154      0.066729      0.012805
O	      2.08972      2.02340      1.91730        -0.013941     -0.117387     -0.040291
O	      4.16516      4.09881      2.20956         0.087677     -0.009457      0.017600
O	      4.27135      2.05695      4.23961         0.033133     -0.030170      0.030484
O	      6.25755      4.09014      4.34006         0.033202     -0.068183      0.015689
O	      6.38618      2.16031      6.22984         0.032172      0.026901     -0.028980
O	      8.24671      4.05199      6.34946        -0.017628     -0.031032     -0.080261
O	      2.16330      4.05484      4.04441         0.065700      0.007965      0.176628
O	      4.19866      6.05109      4.16893         0.004475     -0.054456      0.015269
O	      4.29245      4.10020      6.39145         0.009062     -0.026350     -0.028016
O	      6.27062      6.07923      6.34475         0.031934     -0.159800      0.014043
O	      6.24553      4.11173      8.27117        -0.066120     -0.050327     -0.048985
O	      8.33638      6.28106      8.41470         0.030569      0.107087     -0.050720
O	      2.07277      6.15809      6.28502         0.030414      0.039738      0.013185
O	      4.07648      8.14832      6.30685        -0.135959      0.054526      0.010224
O	      4.07701      5.98547      8.57708         0.010456     -0.020305     -0.012489
O	      6.37255      8.29296      8.45955         0.010505      0.076518     -0.003314
O	      6.15219      6.18193     10.50364        -0.063920      0.083899     -0.024492
O	      8.32609      8.23353     10.49764        -0.061584      0.050344      0.024554
