# total energy = -224.78239846 eV
 
CRYSTAL
PRIMVEC
0.015520 6.055212 6.338246 
6.298485 0.017186 6.336231 
4.214385 4.050528 -0.003728 
PRIMCOORD
36 1
Li	      2.14006      2.02418      0.05518         0.016451      0.021731      0.014723
Li	      4.20212      2.04869      2.14894        -0.048135      0.040255     -0.017855
Li	      6.36532      8.09495     10.46138         0.032095     -0.003385      0.012318
Li	      0.04626      2.02545      2.10789         0.037034     -0.050467     -0.034220
Li	      2.03914      4.02726      2.26420         0.046105     -0.057828     -0.023181
Li	      2.14378      2.06557      4.08388        -0.033566     -0.073536     -0.038388
Li	      8.38744      6.07383     10.41441        -0.003164      0.081731     -0.018438
Li	      2.06470      4.06282      6.31331         0.001712     -0.040949      0.012994
Li	      8.41869      8.03839      8.56454         0.046807      0.024737     -0.014958
Mn	      6.31440      4.05007      2.13068        -0.154926      0.198351     -0.143519
Mn	      6.32114      4.00065      6.38911         0.074529     -0.021643     -0.016396
V	      4.22173      6.08832      6.32171        -0.017183     -0.044513      0.196025
Cr	      4.21578      6.07384     10.51118         0.175658     -0.067260      0.007441
Cr	      8.37598      6.12133      6.35133        -0.022999      0.109412     -0.139269
Cr	      0.03030      4.01526      4.18800        -0.226605      0.154903      0.351258
Fe	      0.11181      6.05413      6.39706        -0.093998      0.022407     -0.025860
Cu	      4.01866      3.97793      4.12109        -0.129531      0.201497     -0.015748
Cu	      6.48246      6.17787      8.50623        -0.283634      0.070618      0.039711
O	      2.00883      4.05311      4.24651         0.403678     -0.072954      0.008911
O	      2.08374      1.86817      2.11645         0.048253      0.164470     -0.016045
O	      4.37465      4.03171      2.00967        -0.080360     -0.015889     -0.074672
O	      4.21055      2.06227      4.34162        -0.174199     -0.068087     -0.242999
O	      6.44246      4.03816      4.06028        -0.239852     -0.011400      0.063490
O	      6.18143      2.05442      6.36191         0.036094      0.085879      0.029527
O	      8.34098      4.11971      6.20390        -0.077129     -0.067893      0.028011
O	      4.12797      6.01814      4.46273        -0.019011     -0.036189     -0.243666
O	      4.36674      4.08783      6.31301        -0.028420     -0.070073      0.336671
O	      6.23941      5.94142      6.28224        -0.014636      0.147900     -0.058744
O	      6.33223      4.18483      8.54179         0.014078     -0.105858     -0.172604
O	      8.40612      6.08751      8.29775         0.211723     -0.040122      0.403674
O	      2.14638      6.06388      6.48827         0.204700     -0.061424     -0.036726
O	      4.22915      8.04826      6.26474         0.043076     -0.064450     -0.022314
O	      4.10158      6.07381      8.33234         0.194436      0.031512      0.151130
O	      6.31029      8.12523      8.42974         0.125573     -0.231492      0.000736
O	      6.24166      6.03858     10.76065         0.064648      0.074560     -0.208786
O	      8.54851      8.18494     10.56287        -0.129304     -0.224551     -0.092232
