# total energy = -232.41991649 eV
 
CRYSTAL
PRIMVEC
0.007989 6.297025 6.240819 
6.238446 0.001301 6.247626 
4.160075 4.203508 -0.000084 
PRIMCOORD
36 1
Li	      4.17911      4.21358      0.10991         0.005117     -0.029287     -0.035045
Li	      2.08402      2.07985      0.07332         0.023005     -0.000738     -0.037234
Li	      4.03241      2.09250      2.03034        -0.005804     -0.024704     -0.001228
Li	      8.34584      4.16004      8.23382         0.012545     -0.001011     -0.043348
Li	      2.08030      2.12088      4.14397        -0.004497     -0.030139     -0.011804
Li	      4.19487      2.16183      6.28573        -0.003830     -0.020386     -0.048242
Li	      6.13489      4.18864      6.28523        -0.008613      0.022148     -0.012491
Li	      4.17880      6.27570      6.32217        -0.010687      0.012812      0.058435
Li	      4.17871      4.20106      8.23912         0.019326      0.033356      0.054676
Mn	      4.20193      8.34022      4.18607        -0.095819      0.087943      0.125353
Mn	      2.08715      6.34332      4.25575        -0.050629      0.090372      0.024295
V	      8.27532      4.27739      4.27093         0.115510     -0.077714     -0.125388
Cr	      6.23207      2.13206      4.21106         0.214889     -0.153335      0.035275
Cr	      6.26555      2.07767      8.22204        -0.006148     -0.027625     -0.022256
Cr	      4.15135      4.18733      4.16110         0.108379     -0.081698     -0.090163
Fe	      6.28152      8.39708      6.32155        -0.114725     -0.015486      0.001717
Fe	      6.32208      6.22934      8.21983        -0.095206      0.034635      0.276336
Co	      2.10026      6.31485      8.30219        -0.007604      0.053692     -0.108252
O	      2.01350      1.95118      2.04566        -0.045947     -0.023171      0.016813
O	      4.27054      4.25739      2.11796        -0.040105      0.032735      0.045918
O	      4.24163      2.11387      4.14665        -0.116987      0.174104     -0.000383
O	      6.23748      4.14332      4.06126        -0.169883      0.085173      0.061865
O	      6.23540      2.12270      6.20713         0.024379     -0.004137      0.007537
O	      8.29190      4.24356      6.01955        -0.023854      0.002192      0.148818
O	      2.11728      4.16740      4.22401        -0.062815     -0.023909     -0.020169
O	      4.18813      6.22306      4.02162         0.031145      0.002502      0.018687
O	      4.09516      4.21929      6.13061         0.059628     -0.022753      0.041107
O	      6.20456      6.34974      6.36884         0.015260      0.016501     -0.232046
O	      6.26754      4.17635      8.45556         0.011374     -0.027388      0.022829
O	      8.30912      6.27990      8.33755         0.103628      0.010594     -0.019093
O	      2.10667      6.22014      6.37746         0.003435      0.021634      0.037703
O	      4.24944      8.40313      6.06580        -0.031517     -0.018169     -0.102800
O	      4.10325      6.32022      8.49989         0.067624     -0.032239     -0.014079
O	      6.25511      8.44711      8.36848         0.004576     -0.041970      0.010515
O	      6.14200      6.37816     10.30345         0.082796      0.041628     -0.033833
O	      8.32782      8.52603     10.43568        -0.007946     -0.066162     -0.030026
