# total energy = -230.95215500 eV
 
CRYSTAL
PRIMVEC
0.010056 6.370189 6.241644 
6.338262 0.003009 6.248767 
4.221833 4.247900 0.005643 
PRIMCOORD
36 1
Li	      4.32690      8.41431      8.35649        -0.019588      0.023513     -0.033198
Li	      6.36439      8.45610     10.27322         0.003587     -0.002997     -0.027201
Li	      2.13847      4.22300      2.26179         0.020848     -0.028896      0.020865
Li	      2.18168      2.18981      4.16559        -0.009516     -0.029764      0.019336
Li	      6.39977      4.32972     10.40998        -0.016624      0.027641     -0.007951
Li	      8.35480      6.32247     10.35335        -0.037289     -0.009832     -0.014099
Li	      4.27574      6.38991      6.34473         0.051094      0.002736      0.034904
Li	      8.36412      8.55787      8.42110         0.017235     -0.018816      0.000645
Li	      6.25983      6.49072      8.38111        -0.049922      0.089722     -0.023145
Mn	      6.27621      4.32580      6.21812         0.021227      0.043176      0.042544
Mn	      6.33785      8.45708      6.22967        -0.031148      0.002150     -0.033671
V	      4.18068      6.47691      2.27633         0.026439     -0.115665      0.006536
Cr	      2.13268      6.36039      8.31793        -0.023328      0.024909      0.009447
Cr	      4.24254      6.38626     10.32785         0.015384     -0.007261      0.070292
Cr	      4.23256      2.12357      6.24193        -0.026229     -0.064228      0.037121
Fe	      6.36155      6.35780     12.40330        -0.062516     -0.008938      0.108122
Fe	      8.52377      8.47193     12.40039        -0.069073      0.022774      0.101124
Ni	      4.18865      4.14838      4.12568         0.085922      0.009927     -0.026907
O	      1.91420      2.05222      1.96868         0.044740      0.004688      0.031060
O	      4.29125      4.37561      2.04838         0.003697     -0.037608     -0.076073
O	      4.22690      2.06006      4.24328         0.034116     -0.053530     -0.029806
O	      6.36918      4.24621      4.07754         0.056144     -0.023172     -0.042052
O	      6.31883      2.05059      6.35002        -0.038242      0.048864     -0.043165
O	      8.50089      4.26448      6.18564        -0.009853      0.067503      0.006093
O	      2.14648      4.22773      4.30325        -0.094016     -0.006545     -0.037948
O	      4.23148      6.29860      4.01856         0.006680      0.037616      0.048991
O	      4.21013      4.12722      6.19006        -0.018892     -0.037782      0.148190
O	      6.45532      6.38810      6.34345         0.038930      0.016797     -0.005793
O	      6.39565      3.99503      8.35292         0.031649      0.117019      0.047253
O	      8.69087      6.32867      8.27628        -0.064334     -0.037354      0.044305
O	      2.05986      6.44196      6.25603         0.056777     -0.066951      0.014729
O	      4.16603      8.59906      6.27893         0.085733     -0.053461     -0.009983
O	      4.13761      6.38246      8.36971         0.013108      0.015546     -0.031840
O	      6.33978      8.60631      8.16958        -0.010361     -0.003380      0.014468
O	      6.26789      6.39093     10.44833        -0.003615      0.031037     -0.148238
O	      8.43386      8.60422     10.50502        -0.028765      0.020562     -0.214956
