# total energy = -234.16832194 eV
 
CRYSTAL
PRIMVEC
-0.019044 6.272715 6.192127 
6.476556 -0.011673 6.184279 
4.308604 4.167277 0.001528 
PRIMCOORD
36 1
Li	      6.42542      4.17910      2.12587        -0.001577      0.019079      0.025514
Li	      8.50285      4.19501      8.29576         0.042397     -0.019736     -0.018676
Li	      6.44959      6.23953      4.16028         0.046869     -0.056999      0.024462
Li	      4.27803      4.19144      4.14007        -0.050999     -0.012721      0.044010
Li	      8.57998      6.28429      6.24929        -0.014529      0.020061     -0.004172
Li	      6.43303      4.21888      6.28728         0.026783      0.000222     -0.109538
Li	      0.13742      4.14955      3.96520         0.048772      0.010995      0.074389
Li	      4.51908      4.09742      8.17951         0.024668      0.014287      0.034343
Li	      6.50960      6.06874      8.21954         0.015885     -0.010579      0.026256
Mn	      8.59452      2.08836      6.18563        -0.002051      0.066678     -0.075098
Mn	      8.62740      6.23314     10.25319        -0.014373      0.031161     -0.024778
V	      4.25169      6.25400     10.22507        -0.010405      0.000309      0.027816
Cr	     10.74782      4.15049      6.18238        -0.067671     -0.046326     -0.068107
Cr	      4.26728      2.13290      2.09252         0.010359     -0.074672      0.068188
Cr	      4.30858      6.29391      2.11471         0.019340      0.008147      0.029128
Fe	      6.37598      2.15137      4.06668         0.008461     -0.040713      0.051931
Fe	      2.24579      4.10915      6.21339        -0.023452      0.032319      0.149637
Fe	      4.45710      6.20139      6.16132        -0.027749      0.045001      0.083089
O	      2.16213      2.08914      1.93182        -0.047384      0.009473     -0.039842
O	      4.33227      4.16419      1.97643        -0.061123      0.059179      0.014849
O	      4.35466      2.07429      4.07847        -0.042947      0.066753      0.005898
O	      6.62667      4.08443      4.17371        -0.094455      0.086709     -0.022615
O	      6.40268      1.97355      6.21055         0.068810     -0.012249      0.017535
O	      8.75704      4.03660      6.07870         0.046770     -0.071126      0.101034
O	      2.13569      4.32801      4.25134         0.023341      0.025619     -0.117865
O	      4.36230      6.28156      4.16973        -0.021115      0.010985     -0.128196
O	      4.18802      4.28082      6.23697         0.083729     -0.090102      0.023346
O	      6.40574      6.32182      6.20938         0.062647     -0.035001      0.004862
O	      6.49441      4.05424      8.23192         0.025788     -0.037792     -0.000650
O	      8.77437      6.23166      8.36870         0.020135      0.001599     -0.002561
O	      2.06222      6.33555      6.09300        -0.036213     -0.015716     -0.052922
O	      4.36295      8.35926      6.25767        -0.049310      0.077426     -0.018737
O	      4.26012      6.37487      8.22460        -0.022449      0.038437     -0.110804
O	      6.26737      8.39842      8.25896        -0.026882      0.016612     -0.065951
O	      6.32631      6.32790     10.34783         0.054676      0.007331      0.004755
O	      8.47291      8.28129     10.38612        -0.014748     -0.124650      0.049471
