# total energy = -223.52318946 eV
 
CRYSTAL
PRIMVEC
0.012490 6.310382 6.253234 
6.217297 0.017277 6.248527 
4.149168 4.208073 0.007161 
PRIMCOORD
36 1
Li	      2.12804      8.39854      6.27368         0.084773      0.001024      0.022693
Li	      6.22237      2.18012      4.18028        -0.040638      0.046151      0.007579
Li	      4.14905      6.36933      2.17588         0.002993      0.024755      0.013905
Li	      8.23479      4.21945      8.39118        -0.014471     -0.040118      0.020541
Li	      4.16085      4.29306      4.22457         0.035835      0.035361      0.048965
Li	      8.26183      6.38502      6.29158         0.001557      0.028753      0.009476
Li	      6.14617      4.24208      6.25894        -0.073022      0.021918     -0.041914
Li	      4.17174      8.31286      4.13122         0.000378     -0.028864      0.005265
Li	      4.20226      6.27656      6.14269         0.024474     -0.018229     -0.018109
Mn	      4.12630      2.11678      2.07849        -0.001610     -0.003496      0.061758
Mn	      4.20490      4.17788      8.32291         0.031009     -0.005973      0.014730
V	      6.15053      0.21881      6.26209        -0.030650     -0.014971      0.000548
Cr	      8.30217     10.47653     10.44163         0.029254     -0.003941      0.063369
Cr	      6.16716      6.32119      4.18584         0.053637     -0.012129     -0.005056
Cr	      2.08427      4.20080      6.22105        -0.050939      0.005592     -0.003491
Ni	      2.18530      6.28959      4.15572        -0.068843      0.007337      0.069187
Ni	      2.06025      0.03749      2.09364         0.008963     -0.023318     -0.037189
Ni	      6.27080      6.25596      8.27209        -0.061955      0.025067      0.043474
O	      2.16728      2.07086      2.13236         0.012110      0.149868      0.015550
O	      4.16918      4.23140      1.88150        -0.129184      0.054107      0.006684
O	      4.10306      2.00118      4.01991         0.051247     -0.017365      0.005736
O	      6.29361      4.27525      4.16707        -0.005889     -0.011068      0.097894
O	      6.24511      1.95096      6.23509        -0.010802      0.119251     -0.029387
O	      8.46892      4.20429      6.19477        -0.040362      0.024993      0.021656
O	      2.09689      4.16540      4.23386         0.020646     -0.093608     -0.030115
O	      4.20110      6.28843      4.18290         0.104161      0.022285     -0.044771
O	      4.07748      4.21564      6.41416         0.021376      0.023904      0.030268
O	      6.23969      6.41669      6.20907        -0.004812     -0.037304     -0.070836
O	      6.08281      4.25377      8.27904        -0.034946     -0.160851      0.027960
O	      8.26325      6.46624      8.39316         0.111594      0.033046     -0.159097
O	      1.92779      6.25081      6.22538         0.023485     -0.024015      0.043746
O	      4.20442      8.49741      6.40798        -0.029462     -0.044089     -0.042632
O	      4.16668      6.19034      8.41082         0.022580     -0.067608     -0.007525
O	      6.23537      8.41511      8.29646        -0.000960     -0.023660     -0.051690
O	      6.20245      6.29077     10.58582        -0.043166     -0.028101     -0.029370
O	      8.29209      8.46296     10.28958         0.001639      0.035300     -0.059805
