# total energy = -137.95205847 eV
 
CRYSTAL
PRIMVEC
2.115148 2.049027 -0.005786 
-8.539046 8.257204 8.325103 
2.126172 -2.072462 4.163686 
PRIMCOORD
24 1
Li	     -3.05521      4.92474      9.11436        -0.015085     -0.016512     -0.046933
Li	     -7.33564      7.15301      7.22668        -0.007066      0.007125     -0.013304
Li	     -1.24215      3.30375      5.44669         0.017315      0.013895      0.041703
Li	     -3.20632      3.09191      7.28425        -0.002665     -0.001287      0.002753
Li	      1.04062      1.02386      1.04686        -0.000673     -0.000995      0.000912
Li	      0.90456      3.15336      3.17872         0.004623     -0.002021      0.009724
Mn	      0.97726      1.01145      5.22829         0.004894     -0.011244      0.022419
Mn	     -5.28077      7.22166      9.33852        -0.004496      0.012906     -0.012642
Mn	      3.17597      1.01046      3.11924        -0.001559     -0.001113      0.007494
Ni	     -3.21343      5.15243      5.20184         0.002783     -0.005228     -0.010622
Ni	     -5.31317      5.13441      7.21749        -0.035015      0.027958      0.047299
Ni	     -1.11505      5.17107      3.18433         0.038114     -0.032100     -0.051964
O	     -5.31630      7.34791     11.36383         0.014509      0.009436     -0.031173
O	      3.01124      1.04539      5.13973        -0.002472      0.016583      0.017199
O	     -3.29922      5.17535      7.13633         0.105958     -0.105916      0.145020
O	     -5.44997      5.29372      9.38288        -0.027528      0.051882      0.067958
O	     -1.11804      3.08257      2.92789         0.069433     -0.089457     -0.103081
O	     -3.17863      3.23065      5.20803         0.062370     -0.138104      0.127852
O	     -5.31051      7.22341      7.47592        -0.076673      0.088281      0.107440
O	     -7.30692      7.18285      9.42734         0.008302     -0.028254     -0.026898
O	     -1.00284      3.05753      7.43046        -0.104401      0.106353     -0.133499
O	     -3.24848      7.07410      5.19437        -0.066924      0.148717     -0.121472
O	      1.01406      0.88126      3.20220        -0.007440     -0.012167      0.029850
O	      1.14380      2.94150      5.18391         0.023696     -0.038737     -0.076037
