# total energy = -227.41913463 eV
 
CRYSTAL
PRIMVEC
0.026174 6.365617 6.197549 
6.240527 0.022921 6.201457 
4.164560 4.250445 0.011001 
PRIMCOORD
36 1
Li	      6.19910      0.11545      6.14907         0.010401     -0.015755     -0.036324
Li	      8.29512      2.21522      6.23540         0.024366      0.049507     -0.007827
Li	      8.37844      4.20883      4.33474        -0.005710     -0.038221      0.025877
Li	      6.28710      2.19453      8.05410         0.000519      0.021407     -0.090004
Li	      6.30540      6.35261      4.24432         0.030523      0.054896      0.013979
Li	      8.37261      6.25195      6.16368        -0.020961      0.001565      0.003317
Li	      6.39214      4.25971      6.12794         0.017661      0.000952      0.004829
Li	      2.07623      6.39081      4.22752        -0.030635     -0.006543      0.005859
Li	      6.19279      8.48680      6.22086        -0.016280     -0.023777     -0.000271
Mn	      2.02793      0.12751      2.02305         0.061153      0.034831     -0.007662
Mn	      6.23962      2.08958      4.23263         0.106920     -0.094624     -0.218474
Mn	      8.35332      8.38646      8.18581        -0.010042     -0.036790      0.027550
V	      4.10945      4.34538      4.21323        -0.179253     -0.232920     -0.061898
Cr	      8.38780      4.26043      8.15954         0.021844      0.062752      0.195157
Cr	      4.18485      8.47459      4.20852         0.036391      0.009128      0.110455
Cr	      6.24413      6.34093      8.24497        -0.057995     -0.008093      0.049344
Cu	      4.12912      2.16409      2.04423         0.027949     -0.016179     -0.022538
Cu	      4.17657      6.38858      6.22008        -0.070378     -0.034228      0.045249
O	      4.20150      8.38803      6.18951        -0.005691      0.157079     -0.068717
O	      2.18737      2.23503      2.08155        -0.120054      0.047999      0.012812
O	      4.16878      4.45341      2.18528        -0.012682      0.173908     -0.007651
O	      4.21220      2.32646      4.08416         0.028709      0.098159      0.048851
O	      6.06047      4.29556      3.99988        -0.034412      0.068994      0.107084
O	      6.26891      2.17167      6.03738         0.017447      0.016863      0.158590
O	      8.35960      4.27219      6.26698        -0.015236      0.028599     -0.110994
O	      2.18812      4.27643      4.09038         0.171422      0.047487     -0.015814
O	      4.17347      6.36500      4.26737        -0.016018      0.046285     -0.177515
O	      4.14401      4.30592      6.16514         0.034469      0.002989     -0.095231
O	      6.16358      6.36120      6.30953         0.128211     -0.040815     -0.040050
O	      6.37010      4.30230      8.36795        -0.000164     -0.029504     -0.071652
O	      8.23567      6.43237      8.20829         0.063812     -0.174102      0.001569
O	      2.12360      6.35647      6.37913        -0.104420     -0.012595     -0.062221
O	      4.14892      6.12076      8.23651        -0.054740     -0.128699      0.176212
O	      6.16467      8.37695      8.40583         0.057651      0.007323     -0.001572
O	      6.25710      6.26082     10.27371        -0.002271     -0.057315      0.005993
O	      8.39176      8.44937     10.16718        -0.082505      0.019436      0.103685
