# total energy = -211.03211746 eV
 
CRYSTAL
PRIMVEC
0.025720 6.131055 6.433338 
6.154260 0.030473 6.428740 
4.092520 4.074057 0.028362 
PRIMCOORD
36 1
Li	      8.24480      8.21121     12.85184        -0.006701      0.004161      0.071327
Li	      8.12937      4.05230      4.37983         0.043117     -0.008567      0.003036
Li	      6.11004      2.15427      8.56852        -0.022337     -0.043807     -0.014499
Li	      8.20415      6.14475      6.60601         0.057034     -0.005960     -0.019371
Li	      6.16643      4.02154      6.59060        -0.037557     -0.031860     -0.018613
Li	      6.06930      4.06113     10.50033        -0.051926      0.000797      0.054674
Li	      8.23628      6.22789     10.54788        -0.016227     -0.002749      0.022378
Li	      2.05585      4.14637      6.41345         0.000464     -0.013124     -0.042871
Li	      6.24383      6.06973      8.57366         0.019104      0.004077      0.011967
V	      6.21578      6.19361     12.62362         0.231729     -0.011114      0.038631
V	      4.05293      4.07589      4.35394        -0.030406      0.157352      0.135513
V	      4.23397      6.17676      6.44197        -0.146173      0.037813      0.006626
Co	      6.22191      8.18953     10.73671         0.114839      0.037994     -0.081229
Co	      6.16487      6.07086      4.30731         0.041024      0.001137     -0.056617
Co	      8.22117      8.14468      8.63107         0.017803     -0.115534      0.059090
Cu	      2.05060      0.05291      2.13488         0.008170      0.062118     -0.098686
Ni	      4.16131      8.16657      8.61879         0.051618     -0.031261     -0.068732
Ni	      8.15787      4.15228      8.57314         0.010515      0.012624      0.004709
O	      2.12066      2.02960      2.26444        -0.189638     -0.004037     -0.045059
O	      4.14254      4.09001      2.28809        -0.051197      0.099707      0.068915
O	      4.22680      2.08473      4.29568        -0.155898     -0.105966      0.062071
O	      6.01892      4.00452      4.48694        -0.051295     -0.160549      0.128847
O	      6.21059      1.90282      6.29500         0.005226      0.045044     -0.041863
O	      8.46896      4.07035      6.54739        -0.094465      0.035520     -0.118269
O	      2.20747      4.04265      4.24639         0.135202      0.081686      0.010172
O	      4.05749      6.05747      4.47167         0.186603     -0.070903     -0.043914
O	      4.03855      4.22629      6.39792        -0.004469     -0.024696      0.075331
O	      6.00419      6.18321      6.40961         0.134565     -0.003839      0.023760
O	      6.08228      4.10227      8.54892        -0.123992      0.019884     -0.000897
O	      8.19354      6.23222      8.56347        -0.012443      0.092290      0.008581
O	      1.93619      6.12533      6.36779        -0.107318     -0.014433     -0.088001
O	      4.14191      8.21665      6.48618        -0.029848      0.015683     -0.002512
O	      4.05526      6.07831      8.40330         0.104789     -0.059440      0.035019
O	      6.23373      8.24838      8.81219         0.094804     -0.061583      0.067214
O	      6.15116      6.19423     10.84611        -0.025338      0.031703     -0.183173
O	      8.11652      8.22465     10.54866        -0.099376      0.029833      0.036443
