# total energy = -210.37318327 eV
 
CRYSTAL
PRIMVEC
0.001621 6.057657 6.298235 
6.197752 -0.000954 6.300953 
4.135005 4.042501 -0.003400 
PRIMCOORD
36 1
Li	      8.29853      8.12658     12.57372        -0.005979     -0.038060      0.027375
Li	      4.11077      2.10926      2.05587        -0.029379     -0.070478      0.051526
Li	      8.27899      4.05124      4.34364        -0.001592      0.006419     -0.035952
Li	      2.09185      4.01192      2.10305        -0.087159     -0.026107      0.037305
Li	      4.15028      4.03789      4.33370         0.043721     -0.039989     -0.035149
Li	      6.11233      4.05740      6.23154         0.013590     -0.031605     -0.035887
Li	      2.13243      4.05162      6.21134        -0.062738      0.015380     -0.017678
Li	      4.08466      5.92167      6.21446        -0.029184      0.085740     -0.016501
Li	      4.11152      4.00306      8.19722        -0.016027     -0.031067      0.066816
V	      6.21670      2.10848      4.15729        -0.029894     -0.039898     -0.044664
V	      4.11620      6.03525      2.14588         0.030215     -0.022864      0.141327
V	      6.04246      6.04302      8.28624         0.046210      0.031802      0.122088
Co	      4.10981      3.99424      0.03652         0.239866      0.005873     -0.014723
Co	     10.27129      8.08723     10.52016        -0.012941      0.032806      0.006882
Co	      2.03606      6.02164      4.23837        -0.003674     -0.036103     -0.088706
Cu	      2.13060      2.03965      4.28242         0.085734     -0.096369     -0.154497
Cu	      4.11858      2.05848      6.30219        -0.118196     -0.108620     -0.035565
Ni	      2.14417      6.05840      8.33463         0.180014      0.015829     -0.038026
O	      4.13506      3.96773      6.25537        -0.012606     -0.053768      0.012331
O	      1.93893      2.01083      2.28400         0.136941      0.258788     -0.133755
O	      4.19467      4.18736      2.17012        -0.236880      0.224232      0.119783
O	      4.43608      1.99856      4.10894         0.161606      0.022726     -0.016206
O	      6.33450      4.01106      4.10769         0.021082      0.007626      0.222758
O	      6.21026      1.98707      6.39840        -0.108388      0.014774     -0.092858
O	      8.43940      4.11844      6.31743        -0.004081      0.171077      0.023575
O	      1.84865      4.04273      4.21289        -0.140754      0.084831      0.076272
O	      3.94544      6.16758      4.16607        -0.131329      0.000153      0.060217
O	      6.25600      6.00954      6.35791         0.129400      0.069758      0.013919
O	      6.16550      4.02120      8.52078         0.023087     -0.281355     -0.060989
O	      8.31061      6.03759      8.62030        -0.222943     -0.086427      0.002499
O	      1.88124      6.05472      6.23695        -0.012107      0.021679     -0.046579
O	      4.07144      8.19218      6.12637        -0.055190      0.132372     -0.049351
O	      4.27346      6.09488      8.31405         0.150730     -0.089357     -0.046755
O	      6.26697      8.01214      8.48327        -0.009539     -0.083894     -0.087861
O	      6.28992      6.01445     10.34026        -0.030947     -0.155976      0.052629
O	      8.19656      7.96261     10.53765         0.099331      0.090073      0.014399
