# total energy = -211.57901141 eV
 
CRYSTAL
PRIMVEC
0.038195 6.183366 6.303636 
6.196510 0.037452 6.303667 
4.124074 4.115607 0.032090 
PRIMCOORD
36 1
Li	      4.13892      4.08625      0.11369         0.035888      0.021112      0.129365
Li	      4.07618      2.14838      2.28529         0.023173      0.018286      0.076361
Li	      8.16448      4.24887      4.25838        -0.008215     -0.009240     -0.067120
Li	      6.10633      2.15416      4.23375         0.010427      0.022993     -0.034469
Li	      4.14120      6.11594      2.17031         0.030890     -0.043200     -0.000193
Li	      2.14827      2.01380      4.13736        -0.008357      0.006188     -0.060919
Li	      6.15430      4.15203      6.19047         0.004097     -0.007704     -0.027473
Li	      2.17745      4.17520      6.26277        -0.000473     -0.018813      0.048810
Li	      4.21044      4.09579      8.33778        -0.027116      0.014657     -0.059428
V	      8.11961      2.15108      6.35507        -0.170484      0.011434      0.128628
V	      4.14606      8.20992      4.23982        -0.014652     -0.038579     -0.012592
V	      6.12360      6.34454      8.37270        -0.033326      0.328622     -0.001669
Co	      6.17789      4.10314      2.18002        -0.045141      0.015036      0.021393
Co	      2.09528      4.10404      2.13585        -0.071856     -0.046598     -0.020842
Co	      4.15113      4.09611      4.21355         0.093879     -0.124185     -0.047774
Ni	      4.21100      2.08143      6.26099         0.000541     -0.032782      0.077408
Ni	      8.28083      6.22764     10.52151        -0.064826     -0.021340      0.022088
Ni	      4.16642      6.12727      6.28988         0.053897      0.008757      0.079428
O	      2.10778      2.14244      1.97382        -0.027072     -0.057737     -0.093368
O	      4.02533      4.12303      2.26645         0.142744      0.015551      0.075089
O	      4.12216      2.18384      4.27460        -0.014374      0.052268     -0.129892
O	      6.06581      4.14817      4.12250         0.002248     -0.039090     -0.457090
O	      6.33364      2.07968      6.28871         0.110680      0.008501      0.003420
O	      8.29833      4.10606      6.49524         0.030503     -0.099311     -0.021404
O	      2.07750      4.13316      4.10840        -0.036987     -0.031434     -0.028260
O	      4.12979      6.20477      4.23184         0.089755      0.024889     -0.085305
O	      4.16450      4.12216      6.16646         0.026321      0.010269     -0.100806
O	      6.23837      6.16710      6.55683        -0.010215     -0.053724      0.067795
O	      6.29007      4.21034      8.56060         0.099782     -0.020273      0.038933
O	      8.15257      6.09613      8.42210        -0.015158     -0.082248     -0.034656
O	      2.12223      6.27447      6.36390        -0.055972      0.057694      0.454580
O	      4.09513      8.22692      6.12853         0.046476      0.112684     -0.060397
O	      4.31191      6.16507      8.39728        -0.153073      0.009945      0.112294
O	      6.25912      8.11685      8.43671         0.013530     -0.112232      0.046440
O	      6.23738      6.11730     10.34400        -0.079138      0.003953     -0.012310
O	      8.38796      8.27281     10.61335         0.021603      0.095651     -0.026065
