# total energy = -212.72624612 eV
 
CRYSTAL
PRIMVEC
-0.014842 6.334742 6.059714 
6.288452 0.016783 6.028917 
4.205951 4.215517 -0.001757 
PRIMCOORD
36 1
Li	      8.38712      8.37987     11.97895         0.016340     -0.020820      0.088971
Li	      6.35605     10.44540      8.08863        -0.021100      0.013426     -0.018535
Li	      6.42523      8.49465     10.04752        -0.068176      0.081308      0.019705
Li	      4.39117      4.21606      4.00804         0.054249     -0.091544     -0.067495
Li	      6.31681      4.19275      5.99106         0.012958     -0.004385      0.019083
Li	     10.30176      8.58580     10.08390        -0.010700      0.029407     -0.070855
Li	      8.22090      6.55129     10.10694        -0.020089      0.035570     -0.017929
Li	      8.32665      8.54701      8.16958         0.024708      0.020788     -0.020762
Li	      6.22041      6.39731      8.16889        -0.039852      0.021634     -0.028907
V	      2.06623      4.20934      2.13928         0.104556     -0.122552     -0.100343
V	      0.00727      2.15891      2.06223         0.033962     -0.044606     -0.115931
V	      4.14057      2.19859      6.00384         0.012066      0.040798      0.004306
Co	      4.31392      8.35973      8.02735        -0.029533      0.457867     -0.107236
Co	      8.36679     10.50183     10.11812         0.051270      0.093966     -0.381981
Co	      2.09327      4.22281      6.02025         0.106125      0.127748     -0.031877
Co	      4.13802      6.26386      6.02225         0.106833      0.048105      0.038750
Cu	      0.04763      6.30987      5.99166         0.023587      0.094911     -0.089958
Ni	      6.30353      6.23034      4.01106         0.033854      0.016405     -0.024426
O	      2.02907      2.22800      1.93384         0.369307     -0.026419     -0.134212
O	      4.10286      4.18058      1.95503         0.076703     -0.308258      0.024759
O	      4.18895      2.03924      4.12854         0.148569     -0.044291     -0.618451
O	      6.43942      4.25474      4.03136        -0.025619     -0.112333      0.075148
O	      6.12114      2.17849      6.19587         0.097487      0.086454      0.086981
O	      8.37339      4.37976      6.12646        -0.112910     -0.092545      0.110980
O	      2.12464      4.16499      3.94577        -0.014661      0.042671      0.077356
O	      4.24010      6.25047      3.89098        -0.116684     -0.045079     -0.030369
O	      4.05597      4.13200      6.05105        -0.071259      0.012518      0.079937
O	      6.35929      6.46795      6.04437        -0.023070      0.011735      0.139902
O	      6.41020      4.10590      8.05725        -0.079145      0.087179      0.053015
O	      8.45055      6.25001      7.98846        -0.008218      0.072478      0.106855
O	      2.13001      6.15478      5.99692        -0.123710     -0.156569     -0.026713
O	      4.37318      8.33969      6.06062         0.017316     -0.284801      1.180365
O	      4.17801      6.47903      8.16434         0.271930      0.374600     -0.268991
O	      6.22620      8.46971      7.90086        -0.846269     -0.355470      0.075948
O	      6.11087      6.36839     10.13642         0.017168     -0.002981     -0.027873
O	      8.35340      8.60962     10.09433         0.032008     -0.056913      0.000783
