# total energy = -213.67448829 eV
 
CRYSTAL
PRIMVEC
0.010607 6.102085 6.079853 
6.440747 0.012394 6.077956 
4.314377 4.085677 -0.010859 
PRIMCOORD
36 1
Li	      0.15097      6.17537      6.05223         0.022343     -0.064253     -0.015826
Li	      6.47230      8.05432     10.19165        -0.032468     -0.021736     -0.008264
Li	      2.11244      2.11052      4.02963        -0.072795     -0.051329     -0.003155
Li	      4.13465      4.16936      4.08239         0.042003      0.028238      0.030665
Li	      4.26450      2.03290      5.95314        -0.025078     -0.001895     -0.021215
Li	      2.15915      6.08581      4.17247         0.073094      0.043856      0.057455
Li	      2.23006      4.08830      5.95607        -0.061663     -0.020746      0.135201
Li	      4.18755      6.08888      5.97604         0.010959      0.071368     -0.048178
Li	      6.39833      6.10511      8.14073        -0.031068     -0.043515      0.035243
V	      4.44678      8.20807      8.11804        -0.050340     -0.057233     -0.333209
V	      6.43129      4.20950      5.99106        -0.070474     -0.055969      0.106607
V	      8.50141      8.02274      8.04316         0.096796      0.127027     -0.040682
Co	      2.18120      2.05012      0.01837         0.146776     -0.105671      0.079712
Co	      2.19800      6.12495      8.10540        -0.083921     -0.092432      0.051305
Co	      8.63924     10.15050     10.14424         0.185078      0.013319      0.031853
Co	      4.39413      8.14021      4.10728        -0.273823     -0.005830      0.005882
Cu	      4.34247      6.06511      2.03046         0.044279      0.009035      0.149354
Cu	      8.62095      4.19057      8.13607        -0.000148      0.122582      0.075888
O	      2.39040      2.16420      1.94185         0.180394      0.146603     -0.249867
O	      4.46276      4.03833      2.10018         0.064132     -0.073607      0.056555
O	      4.36427      1.90704      3.88629         0.009888     -0.061873      0.079620
O	      6.65977      4.04125      4.08502         0.074508      0.026699      0.044180
O	      6.65005      2.14157      6.17455         0.040725      0.055847     -0.087892
O	      8.49978      4.04987      6.06283        -0.067967     -0.067151     -0.113307
O	      2.06309      4.12569      3.99411        -0.549826     -0.015653     -0.163871
O	      4.31158      6.24935      3.95576         0.093164      0.306296     -0.048617
O	      4.40390      4.05026      6.10538         0.018883     -0.025124      0.057209
O	      6.48503      5.96512      6.04097        -0.000070     -0.039140      0.008366
O	      6.18441      4.02554      8.03692        -0.068374     -0.019997      0.003488
O	      8.43277      6.24242      8.11842        -0.079521     -0.173720      0.022049
O	      2.17604      6.25354      6.13415        -0.028285      0.097993     -0.142051
O	      4.18571      8.10729      6.19780        -0.079946      0.066595      0.164174
O	      4.29562      6.01621      8.21734        -0.001126     -0.026344      0.050815
O	      6.45107      8.11063      8.00528         0.043418      0.032277      0.075830
O	      6.25508      5.95603     10.17278         0.076165     -0.109886     -0.057446
O	      8.62891      8.22267     10.17625         0.354289     -0.014630      0.012128
