# total energy = -216.76870969 eV
 
CRYSTAL
PRIMVEC
0.026540 6.185115 6.444387 
6.101307 0.038615 6.431939 
4.074481 4.122759 0.019681 
PRIMCOORD
36 1
Li	      2.07296      6.18182      8.49897         0.044198     -0.050840     -0.051741
Li	      6.14893      8.27609     10.73881         0.007423      0.008044      0.031960
Li	      2.06370      4.10503      2.30502        -0.029087      0.006529      0.097350
Li	      6.06655      6.23135      4.31723         0.114900     -0.099864      0.056255
Li	      8.14814      6.19516      6.43813         0.033214     -0.042560     -0.064673
Li	      4.09900      8.16102      4.33178        -0.123533      0.061425      0.048438
Li	      2.13727      6.17506      4.37293        -0.012877      0.081369      0.029438
Li	      4.02950      6.25407      6.31268         0.012619      0.040183     -0.074511
Li	      8.14073      8.32519      8.68583        -0.028666      0.036251      0.087233
V	      4.00620      2.11946      2.15399         0.083556     -0.195439      0.088500
V	      6.01820      4.16892      6.49782         0.224614     -0.087294     -0.386468
V	      6.25742      6.19678      8.62758        -0.364927      0.096135      0.264774
Co	      6.13308      6.25186     12.80313         0.053909     -0.090150     -0.077124
Co	      8.15759      8.24847     12.84887         0.075981      0.173111     -0.167488
Co	      8.15445     10.25674     10.74772        -0.133094      0.325361     -0.159859
Co	      4.09167      4.17198      4.28469        -0.015541     -0.057973     -0.022436
Co	      2.08020      4.18301      6.35230        -0.030983     -0.024192      0.140491
Ni	      4.07057      6.16440      2.21895         0.026841      0.031148     -0.057787
O	      2.14488      2.03510      1.96925        -0.012718      0.009152      0.032512
O	      4.06940      4.06071      2.11308        -0.054434     -0.008370      0.014504
O	      4.05957      2.14549      4.09235         0.004386     -0.283436      0.022844
O	      6.10197      4.15785      4.43812         0.273126     -0.023664      0.282964
O	      6.16810      2.15240      6.55427         0.034596     -0.016858     -0.021342
O	      8.03331      4.07017      6.35531         0.184713     -0.113819     -0.790295
O	      2.20528      4.10467      4.37820         0.159853      0.128845     -0.099977
O	      4.13403      6.08000      4.20331        -0.064247     -0.145188      0.152562
O	      4.22840      4.11587      6.46081        -0.331627     -0.049777     -0.102110
O	      6.14498      6.13781      6.63841         0.003896      0.023960     -0.061723
O	      6.13153      4.20786      8.49188         0.035160     -0.001762     -0.000920
O	      8.02755      6.25604      8.66193         0.287336     -0.001549      0.025604
O	      2.04433      6.26575      6.42199         0.000447      0.064053      0.008311
O	      3.99969      8.26380      6.52930         0.012901     -0.068715      0.019019
O	      4.19650      6.25838      8.69632        -0.097021     -0.078537      0.908098
O	      6.00040      8.19914      8.49445        -0.040734     -0.014179     -0.133317
O	      6.01334      6.22889     10.64969        -0.525694     -0.186857      0.044020
O	      8.12596      8.34622     10.92940         0.191512      0.555456     -0.083106
