# total energy = -218.86815662 eV
 
CRYSTAL
PRIMVEC
0.018417 6.057844 6.335249 
6.279704 0.038497 6.315530 
4.225729 4.065516 -0.013940 
PRIMCOORD
36 1
Li	      6.30776      6.08725     12.52971        -0.006142      0.049718     -0.035963
Li	      4.25804      8.09737      8.40704        -0.039606      0.031849     -0.079863
Li	     10.41943      6.10768      8.44858         0.025683      0.001577     -0.011637
Li	      6.25606      6.13394      4.21647        -0.028760     -0.042874     -0.019118
Li	      8.46135      6.10716      6.39199         0.075523     -0.068243     -0.002412
Li	      0.12323      4.10876      4.20777        -0.005208     -0.002752      0.071633
Li	      8.28551      6.08529     10.42217        -0.036263      0.067279      0.016562
Li	      6.21315      8.07061      6.30232        -0.041233     -0.048842     -0.000142
Li	      6.42000      6.12109      8.52578         0.034716      0.007189      0.032132
V	      2.06500      0.05156      2.08198         0.046018      0.315285     -0.373488
V	      4.09495      4.08354      4.20268         0.144176     -0.155944      0.018807
V	      6.36532      4.15751      6.40681         0.138857     -0.130673     -0.195981
Co	      2.21454      8.01576      6.26226        -0.271809      0.476954     -0.091678
Co	      4.30389      6.14870     10.53860        -0.066342     -0.094395     -0.138602
Co	      6.31321      2.08827      4.20832         0.096430     -0.015959      0.074792
Co	      2.14245      4.05647      2.10069        -0.005464     -0.011110      0.098080
Co	      4.14150      6.18636      6.33089         0.972524     -1.335692     -0.216438
Co	      8.43698      8.01728      8.45134        -0.070988     -0.081171      0.178402
O	      2.08440      1.92757      2.08525         0.043548     -0.038728      0.387671
O	      4.18693      4.06807      2.23043         0.021434     -0.014978      0.003159
O	      4.34418      2.16660      4.26000        -0.012853      0.033212      0.057292
O	      6.28791      4.05792      4.19671        -0.058444      0.019815     -0.053909
O	      6.38589      2.21705      6.14355        -0.244653      0.032455     -0.152370
O	      8.35429      4.08533      6.44999        -0.077820      0.103462      0.025526
O	      2.20017      3.99853      4.05061         0.013332      0.031937     -0.087487
O	      4.20532      5.90553      4.30012        -0.034940      0.195930      0.146962
O	      4.31202      4.09375      6.30516        -0.237576      0.662979      0.120586
O	      6.27200      5.96534      6.27444         0.007182      0.201883     -0.010522
O	      6.45102      4.04213      8.31310        -0.033034      0.032081      0.051350
O	      8.43382      6.02919      8.39281         0.006785     -0.058792     -0.020505
O	      2.09473      5.99630      6.47899        -0.188589      0.028804      0.352613
O	      4.22403      8.03703      6.26586        -0.051057     -0.342629      0.126253
O	      4.05111      6.03754      8.38304        -0.055125      0.117407     -0.048081
O	      6.29587      8.26380      8.57418         0.081705     -0.101826      0.054347
O	      6.27450      6.23357     10.53754        -0.002975     -0.049358      0.032873
O	      8.28004      8.15419     10.51419        -0.139035      0.184149     -0.310844
