# total energy = -138.01634192 eV
 
CRYSTAL
PRIMVEC
0.009036 2.100774 2.031346 
-14.841659 -2.127438 4.029521 
2.126484 -4.216699 2.057291 
PRIMCOORD
24 1
Li	     -9.34414     -5.26251      5.10256         0.002115     -0.001705     -0.013896
Li	     -7.60288     -3.20473      5.05318        -0.000821      0.001786      0.012575
Li	     -5.56845     -3.38120      3.14248        -0.002958     -0.003720     -0.000894
Li	     -3.25880     -1.05028      3.04044        -0.014093     -0.016455      0.000494
Li	     -0.97268     -1.07261      1.02746         0.012345      0.016588     -0.000502
Li	    -13.50447     -0.86966      4.95566         0.002126      0.006597      0.000059
Mn	      1.11005     -1.00586      3.08093         0.035730     -0.006198      0.015444
Mn	     -1.05259     -3.16991      3.06230        -0.001253     -0.001711      0.005797
Mn	     -3.20647     -3.23321      5.07553        -0.023175      0.002698     -0.010935
Ni	     -7.46978     -1.13290      3.06800         0.061771      0.044293     -0.057428
Ni	     -9.53199     -1.07481      5.06451         0.000151     -0.000408      0.005087
Ni	    -11.60335     -3.11757      5.03007        -0.058360     -0.045650      0.057669
O	    -11.87164     -3.14826      7.12031        -0.097684     -0.056864      0.081776
O	     -9.59110     -3.15153      4.93236         0.112217     -0.066445      0.134713
O	     -7.48141     -1.05305      5.07317         0.089899     -0.116431      0.122861
O	     -5.28573     -0.95748      2.91519         0.066500      0.022566     -0.033510
O	     -3.28793      0.98113      2.93529        -0.028331     -0.021608     -0.003829
O	      0.96111     -3.01411      3.03499         0.009035      0.013616     -0.011249
O	    -11.58265     -1.09651      5.05617        -0.088814      0.114722     -0.121633
O	     -9.48180     -1.09905      3.16577        -0.116018      0.067952     -0.138858
O	     -5.06610     -3.21839      5.06650         0.093733      0.057809     -0.085157
O	     -3.06631     -3.32569      3.08999        -0.009716     -0.013731      0.011739
O	     -0.93434     -1.00348      3.16370         0.025287      0.022828     -0.000413
O	    -13.78728     -3.29340      5.18243        -0.069687     -0.020531      0.030089
