# total energy = -208.13557233 eV
 
CRYSTAL
PRIMVEC
-0.005518 6.190958 6.296698 
6.332427 -0.006834 6.297990 
4.241585 4.147950 -0.024956 
PRIMCOORD
36 1
Li	      4.35088     10.18444      6.38846         0.025162      0.036057      0.117809
Li	      4.17167      8.35519      8.19923        -0.004480      0.024455      0.025144
Li	      4.28051      6.12407      2.20225         0.012139     -0.086663      0.035818
Li	      2.07896      4.14149      2.21094        -0.104694      0.046675     -0.010356
Li	      4.13197      4.23586      4.09830         0.016191     -0.020952     -0.070483
Li	      6.32840      4.17521      6.35497         0.023431      0.006042     -0.006076
Li	      4.36467      8.19325      4.29846        -0.013255      0.058345      0.023472
Li	      6.13458      8.31925      6.18027        -0.022300      0.017157      0.015277
Li	      4.19885      6.38378      6.17622        -0.026024     -0.043670      0.015830
V	      8.46933      4.14325      4.18551        -0.030878     -0.040962      0.025300
V	      6.31644      2.06838      4.21814        -0.024268      0.040599     -0.004483
V	      4.15669      2.16109      6.28716         0.083309      0.008189     -0.000311
Fe	      4.34571      4.07150      8.37569        -0.200816      0.049795      0.029893
Co	      6.25554      4.16373      2.04955        -0.069004     -0.036907     -0.039954
Cu	      2.28926      6.03054      4.26427        -0.098258      0.117984      0.138281
Cu	      6.32564      6.20246      8.29304        -0.074585      0.045988     -0.008661
Ni	      2.25536      8.22585      6.38146        -0.167960      0.102643      0.004220
Ni	      6.20578      6.28514      4.14969         0.095734     -0.053497     -0.051440
O	      4.19398      8.29514      6.28215         0.127046     -0.010493     -0.029454
O	      2.06301      1.91928      2.12513         0.007474      0.068943      0.081094
O	      4.47071      4.12436      2.10882         0.003827      0.012782      0.009801
O	      4.28020      1.98370      4.24051         0.015292     -0.002183      0.051059
O	      6.43931      4.10112      4.07425         0.095694     -0.070815      0.117866
O	      6.28991      2.09590      6.04780        -0.056816     -0.039757     -0.076211
O	      8.46372      4.22890      6.05819        -0.024424      0.041159     -0.032064
O	      2.13901      4.13358      4.15089        -0.039118      0.053770      0.048642
O	      4.20403      6.18519      4.21331         0.021541      0.041011     -0.012835
O	      4.25291      3.95587      6.32984         0.021451     -0.050349     -0.009526
O	      6.49681      6.19264      6.26614         0.086542      0.037184     -0.079930
O	      6.20984      4.27220      8.36393         0.214697     -0.088318     -0.015600
O	      8.55480      6.22658      8.18959         0.103767     -0.073654     -0.109116
O	      2.13988      6.21199      6.54452         0.023797     -0.108220     -0.199304
O	      4.01807      6.10941      8.59266        -0.033409      0.029790      0.017639
O	      6.42702      8.27643      8.53885         0.054982     -0.013909      0.049800
O	      6.20989      6.30950     10.36235        -0.030259     -0.048133      0.046659
O	      8.32626      8.28140     10.49627        -0.011530     -0.050087     -0.097800
