# total energy = -208.68037381 eV
 
CRYSTAL
PRIMVEC
-0.021506 6.335131 6.199380 
6.190675 0.029693 6.145693 
4.150306 4.212179 -0.003377 
PRIMCOORD
36 1
Li	      8.19545      2.12943      6.19844        -0.030391     -0.003707      0.011969
Li	      6.27419     10.42597      8.20410        -0.008258     -0.040681      0.018234
Li	      4.24571      8.36123      8.19651         0.115969     -0.026214      0.002082
Li	      4.09412      6.33994     10.23585         0.004158     -0.027246     -0.104964
Li	      6.19144      8.47529     10.24976         0.039547     -0.003737     -0.078515
Li	      6.15988      2.17109      8.08821         0.015886     -0.019862      0.020935
Li	      6.23702      4.16182      6.19356        -0.033243     -0.001390      0.014559
Li	      6.19318      8.47658      6.32345         0.015689      0.006693      0.090864
Li	      6.13824      6.48210      8.15794        -0.034357      0.082095     -0.043195
V	      6.24939      6.25656      4.07845         0.216094     -0.215408     -0.135672
V	      4.22097      4.18118      4.11437         0.197198     -0.181087     -0.067927
V	      6.12073      4.35865     10.29394        -0.167846     -0.200037     -0.281914
Fe	      8.17374      6.43242     10.27048         0.191480      0.111200     -0.249214
Co	      8.28863      6.32179      6.17514        -0.001817      0.113468      0.061889
Cu	      6.18822      0.10777      6.20877         0.104041     -0.114975     -0.215164
Cu	      8.20786      4.27630      8.15415        -0.077367      0.038549     -0.013241
Cu	      4.08585      6.37277      6.28252         0.032081      0.073907      0.095910
Ni	      4.05636      4.26632      8.19149         0.021095      0.105239     -0.059478
O	      4.12003      6.24195      8.15437         0.068357      0.241960     -0.083799
O	      2.06655      2.14770      2.25949        -0.011585     -0.044558      0.184865
O	      4.14793      4.18962      2.32705        -0.007192      0.029548      0.107357
O	      4.08041      2.16823      4.21846        -0.055737      0.060619      0.010937
O	      6.14905      4.32153      4.13691        -0.069653      0.163743      0.060728
O	      6.06306      2.04997      6.15479        -0.054682      0.000222      0.004690
O	      8.30710      4.38208      6.25498         0.012234     -0.006234      0.084010
O	      2.03753      4.23572      4.02375        -0.016148      0.101697      0.129833
O	      4.17051      6.28133      4.26644        -0.191955      0.034708     -0.133424
O	      4.12194      4.05744      6.04914         0.023104     -0.091697     -0.220758
O	      6.27561      6.36357      5.99535         0.044220     -0.002400     -0.084850
O	      6.07559      4.16346      8.39042         0.296236     -0.009499      0.163218
O	      8.25107      6.43995      8.16792         0.011102     -0.307192      0.067344
O	      2.02604      6.37172      6.07026        -0.039745     -0.020090      0.203115
O	      4.14791      8.56591      6.01394        -0.043029      0.059763      0.137807
O	      6.30506      8.46170      8.24576        -0.497388     -0.021597     -0.015312
O	      6.22482      6.24495     10.16938        -0.064224      0.108372      0.106851
O	      8.33476      8.42013     10.27314        -0.003875      0.005829      0.210229
