# total energy = -209.53563839 eV
 
CRYSTAL
PRIMVEC
-0.020028 6.076804 7.095469 
5.866676 0.064130 7.009045 
3.935230 4.019097 0.015954 
PRIMCOORD
36 1
Li	      1.95699      2.04746      0.10672        -0.013750     -0.025980      0.083505
Li	      5.89328      2.06789      4.98067        -0.067787      0.021802     -0.028741
Li	      5.94629      2.04400      9.11213        -0.023776      0.007538     -0.080951
Li	      1.86221      4.04989      2.61466        -0.029242     -0.037288      0.025092
Li	      5.87304      6.12773      4.96300        -0.069941     -0.017992      0.019992
Li	      7.81639      6.03358      7.01375        -0.041477      0.021325      0.061502
Li	      0.05619      3.96137      4.55971         0.013347     -0.058465     -0.031663
Li	      1.93860      4.07836      6.96043         0.044511     -0.000357      0.017928
Li	      5.83876      6.06137      9.08649         0.036102     -0.025596     -0.026207
V	      3.90429      8.11926      9.39989        -0.095623      0.153030      0.033475
V	      3.94544      6.11940     11.76505        -0.032805      0.210201     -0.482111
V	      7.92546      7.94245      9.46787         0.004466     -0.122412     -0.450678
Fe	      3.95635      4.08067      4.47728         0.296945      0.075684      0.116752
Co	      7.77613      6.13059     11.73443        -0.225575     -0.305219      0.434742
Cu	      5.87474      6.20519     14.05274         0.088463     -0.089804      0.093597
Cu	      5.89277      4.06051      2.37879        -0.024549      0.029446     -0.128471
Cu	      5.89532      4.04446      7.04872        -0.145564     -0.029084     -0.007040
Cu	      3.90469      6.17847      6.90549        -0.108739     -0.088280     -0.149809
O	      1.96494      6.14372      6.63944        -0.066061      0.305400      0.984216
O	      2.08260      2.00498      2.32706         0.098895      0.168956     -0.094372
O	      3.92786      4.03082      2.47906        -0.151968     -0.124412      0.059158
O	      3.93188      2.05096      4.46208         0.064299     -0.010374      0.089018
O	      5.95315      4.08042      4.70313         0.108765     -0.081700      0.061555
O	      5.83165      2.09100      7.07565         0.030186      0.115022     -0.096407
O	      7.85459      4.06902      6.66962         0.047936     -0.061007      0.170740
O	      2.02746      4.14575      4.75742        -0.350597     -0.645767     -0.222795
O	      3.83035      6.00065      4.75727         1.182163      0.160801      0.021996
O	      3.88996      4.09633      7.63018         0.022736     -0.125713     -0.020080
O	      5.81423      5.99012      7.07372         0.157040      0.094011      0.029299
O	      5.74802      4.05365      9.52869        -0.126038      0.026004      0.067606
O	      7.75737      6.17128      9.67556         0.021298      0.435553     -0.790106
O	      3.94918      8.15994      7.46334         0.002318     -0.001568     -0.027678
O	      3.89079      6.07497      9.65731         0.147038     -0.058546      0.139775
O	      5.83971      8.16526      9.44709         0.030448     -0.160039      0.010101
O	      5.78066      6.07382     11.72759        -0.861948     -0.085168      0.018018
O	      7.77489      8.11567     11.45843         0.038484      0.329998      0.099045
