# total energy = -209.07964549 eV
 
CRYSTAL
PRIMVEC
0.005703 6.335925 6.122425 
6.217525 0.020135 6.107238 
4.160913 4.230024 -0.002579 
PRIMCOORD
36 1
Li	      8.28551      2.18495      6.16394         0.001577      0.054895     -0.008691
Li	      2.13686      6.35950      8.12019         0.081218      0.029163      0.026918
Li	      4.15286      8.39028      8.14513        -0.003584     -0.066407     -0.019444
Li	      4.13956      0.02699      4.05565         0.052395     -0.017900      0.011009
Li	      6.19936      2.09802      8.08258        -0.122151      0.025310      0.009895
Li	      8.33154      4.25935      8.09238        -0.018309      0.100259      0.027818
Li	      8.30909      6.35730      6.16804         0.034294     -0.008140      0.066666
Li	      6.21304      4.23284      6.16706         0.014798     -0.015021      0.072100
Li	      4.14900      4.30777      8.06879         0.021574     -0.050705      0.040600
V	      6.23325      2.24844      4.05396         0.199007     -0.174241      0.145700
V	      2.18823      2.06846      4.01744        -0.130072      0.058535      0.067242
V	      6.15941      4.23391     10.11497        -0.186784     -0.024940     -0.039948
Fe	      4.06557      4.23011      0.14022         0.299874      0.015924     -0.387054
Co	      8.29458      6.37206     10.09787        -0.270023     -0.050323      0.761307
Ni	      6.27336      8.45296      6.17454        -0.135584     -0.016942      0.147140
Ni	      4.12474      6.30166      6.16902        -0.075767      0.216251     -0.032496
Ni	      6.18677      6.34521      8.10532         0.371681     -0.086302     -0.044610
Ni	      4.15345      4.23632      4.05049        -0.079558      0.180969     -0.054643
O	      2.05522      2.09198      2.26593         0.032240     -0.019983     -0.070439
O	      4.19106      4.25880      1.98084         0.057965     -0.075599      0.471760
O	      4.15694      2.18816      4.07745         0.062754     -0.048271     -0.024390
O	      6.22042      4.21021      4.09083         0.090253      0.110245     -0.011090
O	      6.24139      2.06043      5.90950        -0.002795      0.162900     -0.071544
O	      8.46127      4.22739      6.14617        -0.472309      0.028900     -0.086790
O	      2.00204      4.13251      4.10142         0.110316     -0.009059     -0.173304
O	      4.18436      6.44113      4.12089        -0.034077     -0.143614     -0.218095
O	      4.09569      4.30668      6.07086         0.218077     -0.194488     -0.219701
O	      6.22251      6.36638      5.99237         0.043294     -0.104769     -0.183594
O	      6.22978      4.26656      8.32379        -0.040937     -0.117513      0.002328
O	      8.26088      6.33944      8.29382        -0.041620      0.114527     -0.032810
O	      1.99080      6.28151      6.00208         0.110082      0.196145     -0.433712
O	      4.18917      8.50230      5.97214        -0.054569     -0.165369     -0.049388
O	      4.21183      6.36564      8.08600        -0.303934      0.013332      0.312242
O	      6.24082      8.41340      8.33748        -0.049589      0.168980      0.015702
O	      6.24155      6.33351     10.21670         0.203724     -0.071114      0.092107
O	      8.31063      8.41662     10.20759         0.016539     -0.015635     -0.108794
