# total energy = -211.61990064 eV
 
CRYSTAL
PRIMVEC
-0.019512 6.369380 6.234103 
6.269116 -0.018251 6.232583 
4.159830 4.225767 0.007484 
PRIMCOORD
36 1
Li	     10.33100      4.33711      6.27054        -0.025126      0.036981     -0.049798
Li	      8.23823      2.20923      6.23660        -0.035268      0.031333     -0.071708
Li	      8.29682      4.27464      4.28172        -0.012061      0.036857      0.070822
Li	      6.25982      2.18558      8.14093        -0.018985     -0.000067      0.016811
Li	      4.28056      1.99357      6.21637         0.027645     -0.044324     -0.038953
Li	      6.34562      4.07835      6.31160         0.043738     -0.052763     -0.036964
Li	      6.25330      4.20515     10.27517        -0.025304     -0.004621     -0.004320
Li	      4.33470      4.36390      8.23999        -0.037668     -0.021354      0.035470
Li	      6.14167      6.17972      8.27960         0.051958     -0.016094      0.010076
V	      4.21569      4.25629      4.16315         0.067962     -0.108714      0.031587
V	      8.16069      6.55528     10.31369        -0.239904      0.260066      0.064371
V	      6.15220      8.40684      6.28423         0.041999      0.050773     -0.286053
Fe	      8.19343      4.15161      8.16559         0.092477      0.116077      0.129450
Co	      6.24390      2.12556      4.25308         0.107156     -0.199732      0.078386
Co	      6.24231      6.35038      4.20865        -0.031327     -0.013935      0.062309
Cu	      2.14181      0.03692      2.09367        -0.099727     -0.056195     -0.094697
Ni	      4.14262      8.43575      8.33597         0.097243      0.077123      0.048871
Ni	      4.17246      6.33952      6.26478        -0.032992      0.008546     -0.024760
O	      2.10918      2.09914      2.24713        -0.052437     -0.101034      0.177391
O	      4.17594      4.17765      2.27334         0.013498      0.099153      0.038450
O	      4.06975      2.22425      4.16664         0.235737      0.077212      0.148253
O	      6.12732      4.39166      4.31855         0.001655     -0.011447      0.094637
O	      6.27129      2.08179      6.15868        -0.033689      0.069492     -0.444611
O	      8.39220      4.17912      6.31593         0.021660     -0.004453     -0.106624
O	      2.14021      4.12499      4.19248        -0.030695     -0.100522     -0.035257
O	      4.23085      6.24024      4.21365         0.031552     -0.020255     -0.098079
O	      3.97193      4.24492      6.10718        -0.022644     -0.029504      0.060848
O	      6.23095      6.47445      6.16809         0.082071     -0.001134     -0.008418
O	      6.31989      4.22261      8.31116        -0.187192     -0.010384     -0.015759
O	      8.41549      6.19124      8.57689         0.033696     -0.083276     -0.020929
O	      2.13030      6.21207      5.92669        -0.036975      0.001014     -0.095906
O	      4.32343      8.46144      6.22346         0.011936      0.045300     -0.056101
O	      4.07715      6.40864      8.27946        -0.001548     -0.081873      0.037935
O	      6.23183      8.59589      8.24502         0.095915     -0.001621      0.414979
O	      6.41138      6.36645     10.34467        -0.131393     -0.065034     -0.042460
O	      8.36033      8.29581     10.35648        -0.002966      0.118409      0.010754
