# total energy = -210.07057215 eV
 
CRYSTAL
PRIMVEC
0.045550 5.983286 6.316967 
6.711742 -0.044202 6.409175 
4.398712 3.977540 0.042866 
PRIMCOORD
36 1
Li	      6.72481      3.93899      2.33968         0.075390      0.002764      0.107774
Li	      8.70536      3.95925      4.25515        -0.144848     -0.003683     -0.012813
Li	      6.58920      7.95381     10.45128        -0.047094      0.119130     -0.019998
Li	      6.78916      5.86765      4.32581         0.053523     -0.077117     -0.090629
Li	      4.74329      3.90335      4.32663         0.160720     -0.008508     -0.030450
Li	      6.61154      3.97616      6.16441         0.044091     -0.134904     -0.101422
Li	      8.86280      5.96340     10.64916        -0.026595     -0.027747     -0.013866
Li	      4.75096      5.87643      6.33947        -0.041957      0.032965     -0.020885
Li	      6.66527      5.97765      8.36321        -0.018182     -0.051368      0.053567
V	      2.14080      1.92618      0.05348        -0.162313      0.013329     -0.113306
V	      4.36555      5.94734      2.32366         0.017602      0.105690     -0.129720
V	      6.73869      4.03310     10.65145        -0.087069     -0.140563     -0.250985
Fe	     11.01033      3.96852      6.44118         0.017864      0.229188      0.389385
Co	      8.87727      3.99585      8.62972        -0.060932     -0.136639     -0.247814
Co	      4.43556      4.06883      8.37341        -0.074445      0.188944      0.059237
Cu	      4.59160      7.87004      8.53737         0.086062     -0.048086      0.068375
Cu	      4.35422      1.98394      6.20811        -0.047761     -0.091803     -0.222806
Cu	      2.35633      3.97042      6.34435         0.077550      0.013477     -0.082500
O	      6.80058      6.00589      6.35933        -0.072980      0.029992      0.014514
O	      1.95674      2.02563      2.02082         0.221471      0.477395      0.221807
O	      4.26028      3.97967      2.08462        -0.268987     -0.063349      0.114104
O	      4.49953      1.96238      4.11581        -0.031073      0.012631      0.364248
O	      6.70511      3.91073      4.25344        -0.003476     -0.003081      0.010358
O	      6.81261      1.94863      6.60391         0.102140      0.234172      0.064210
O	      8.98138      3.90168      6.47332        -0.231884     -0.014581      0.155053
O	      1.88743      3.97760      4.36436         0.163502     -0.036749      0.036757
O	      4.40557      5.96783      4.12591        -0.066102     -0.060776      0.108715
O	      4.58852      3.89024      6.40122         0.018813      0.165674     -0.009369
O	      6.69561      3.94540      8.69515         0.172014      0.014772     -0.057819
O	      9.11299      6.04135      8.59583         0.066255     -0.484769      0.006387
O	      2.05497      6.07132      6.35544         0.057647      0.043608      0.019691
O	      4.19404      7.96319      6.39808        -0.050894     -0.118952     -0.141037
O	      4.56515      5.88589      8.42885         0.070661     -0.131691     -0.080016
O	      6.87977      7.94750      8.34247        -0.064371     -0.029880      0.002801
O	      6.76717      5.92587     10.77038         0.058900      0.038073     -0.169989
O	      9.19345      7.92884     10.78933         0.036757     -0.057557     -0.001560
