# total energy = -211.65559850 eV
 
CRYSTAL
PRIMVEC
-0.021741 6.346047 6.125307 
6.309914 0.002689 6.101733 
4.199667 4.207421 0.008433 
PRIMCOORD
36 1
Li	      8.41695      2.16512      6.09546        -0.026897      0.014057     -0.014891
Li	      8.26627      4.25112      8.04021        -0.060616      0.025850     -0.034300
Li	      6.28237      6.32275      4.23809        -0.018667     -0.011266     -0.027724
Li	      4.26612      4.18614      4.30175         0.051547      0.015428     -0.073054
Li	      6.11519      4.40214      6.23518         0.023835     -0.037696      0.009060
Li	      6.43901      8.23966      6.16151        -0.000763      0.013534      0.089000
Li	      4.42838      6.08999      6.17004        -0.032937     -0.046668      0.046854
Li	      4.36811      4.21284      8.01737        -0.041170     -0.028985      0.056199
Li	      6.26005      6.19492      7.98135         0.030987     -0.026590      0.028756
V	      4.06760      2.15135      1.96072         0.109329      0.038507     -0.067555
V	      6.31376      8.48119     10.19317         0.051128      0.160365     -0.005156
V	      2.21458      6.14374      4.07606        -0.016316     -0.013135      0.253248
Fe	      8.35602      4.21292      4.10911        -0.009217     -0.018152     -0.064301
Co	      6.28341      6.37185     12.18278         0.022318      0.007132      0.108969
Co	      2.12205      6.32413      8.04917        -0.107278      0.174560      0.134143
Ni	      6.32745      2.17022      8.09932         0.100625     -0.162976     -0.087505
Ni	      8.27123      6.41703      6.15855         0.074778     -0.114795      0.083891
Ni	     10.46597      8.43819     10.18373        -0.039149      0.029638      0.171781
O	      2.23185      2.12260      2.07514        -0.022067     -0.239012     -0.002898
O	      4.26116      4.20234      1.90187         0.561856      0.038933     -0.166603
O	      4.28650      2.06210      4.00449        -0.034034      0.029290     -0.004074
O	      6.37559      4.06225      4.07167        -0.042742      0.117638      0.063610
O	      6.27006      1.98447      5.98791         0.053107     -0.050135      0.024147
O	      8.58040      4.27215      6.03986         0.062510     -0.043114      0.086463
O	      2.06153      4.40849      4.09253         0.052698     -0.114921      0.011606
O	      4.00459      6.36100      4.11985         0.059787     -0.105883      0.112855
O	      4.17389      4.17552      6.15727         0.035975      0.128179      0.033501
O	      6.31724      6.31976      6.09877        -0.179943     -0.059071     -0.009176
O	      6.33015      4.12766      8.22408         0.047824      0.138973     -0.146088
O	      8.39985      6.35472      8.37566        -0.093236     -0.023231     -0.149498
O	      1.92514      6.41931      5.94024        -0.080319      0.032277      0.042337
O	      4.17006      8.65119      6.17019        -0.019563      0.077963      0.017399
O	      4.15519      6.51107      8.19219        -0.554635     -0.126905     -0.099707
O	      6.07608      8.44707      8.32849        -0.003922      0.120084     -0.333747
O	      6.33311      6.38372     10.24099         0.030479      0.042290     -0.026794
O	      8.28387      8.47922     10.17144         0.014686      0.017834     -0.060748
