# total energy = -215.75183374 eV
 
CRYSTAL
PRIMVEC
0.013786 6.275982 6.126408 
6.335800 -0.000948 6.141834 
4.220425 4.190214 0.002498 
PRIMCOORD
36 1
Li	      2.07899      0.10066      2.08401        -0.084219      0.089052     -0.004980
Li	      4.20737      2.05273      2.10170        -0.021035     -0.013800     -0.039171
Li	      8.35126      4.27197      4.09496        -0.011658      0.031409      0.016971
Li	      2.16614      2.07817      4.02307         0.055391     -0.037041     -0.016188
Li	      4.25621      2.14776      6.07400        -0.022945      0.001491      0.013021
Li	      6.27506      4.18137      6.03120        -0.015338      0.033443     -0.001755
Li	      4.31041      8.30359      4.10500         0.011514     -0.000956      0.036782
Li	      2.16051      6.20111      4.11031        -0.000007      0.013813     -0.018478
Li	      8.47053      8.38915      8.24510        -0.001169     -0.017665     -0.004091
V	     10.54512     10.45068     12.24034        -0.055077     -0.012307      0.217882
V	      8.46844      8.37084     12.24612         0.037933      0.000630      0.117610
V	      6.38648      6.19342      8.00283         0.018429      0.100203     -0.127328
Fe	      6.23968      2.20541      4.03396         0.080337     -0.146633     -0.002305
Co	     10.48776      6.34834      8.26678        -0.033870     -0.067721      0.058784
Co	      4.23433      4.17126      4.07647        -0.112920     -0.031805     -0.074212
Co	      2.17481      4.21083      6.11219         0.002025      0.077437     -0.024073
Cu	      4.23480      6.22513      6.06886         0.143926      0.119696      0.088023
Ni	      2.10581      4.18706      2.10190         0.044816     -0.026681      0.025332
O	      2.03649      2.12987      1.88873        -0.019880     -0.083128     -0.003406
O	      4.16665      4.22525      1.97289         0.079979     -0.010894      0.011379
O	      4.29775      2.21920      4.07194        -0.108997     -0.005254      0.014496
O	      6.22129      4.12975      4.03527         0.000096      0.178148     -0.001205
O	      6.37777      2.02366      6.15884        -0.031389      0.046500      0.047246
O	      8.54819      4.08896      6.17763        -0.029809      0.007502     -0.119475
O	      2.27621      4.14694      4.11080         0.119468     -0.026786      0.119917
O	      4.23002      6.14592      4.11569        -0.010758      0.060341     -0.235201
O	      4.22129      4.24450      5.99764         0.084307     -0.050685     -0.131211
O	      6.49220      6.21397      6.24787         0.116735      0.122162      0.154972
O	      6.36698      4.34414      8.26858        -0.099443     -0.111435      0.019000
O	      8.28477      6.26459      8.24778         0.144492      0.076210      0.034790
O	      1.96079      6.35217      6.19986        -0.100247     -0.156414     -0.016441
O	      4.15708      8.41981      6.11795        -0.102633     -0.014135      0.019150
O	      4.51710      6.26103      8.10451        -0.087672     -0.053287      0.096105
O	      6.40352      8.14510      8.19979        -0.001614     -0.013841      0.027286
O	      6.30951      6.35248     10.39631         0.012078     -0.052400     -0.180591
O	      8.33528      8.39674     10.41728        -0.000848     -0.025167     -0.118637
