# total energy = -214.11215973 eV
 
CRYSTAL
PRIMVEC
0.001398 6.195471 6.149811 
6.317050 0.009742 6.141476 
4.211540 4.124897 0.006275 
PRIMCOORD
36 1
Li	     10.41712      4.20209      6.13395        -0.002366     -0.031765      0.013544
Li	      8.37774      4.17978      4.24489         0.002612      0.028828     -0.006847
Li	      6.21337      2.04751      8.04673        -0.070951     -0.006125      0.001783
Li	      6.37544      6.18998      4.17369         0.019965     -0.023533      0.022550
Li	      4.25797      4.09892      4.11678         0.037505     -0.019776      0.070430
Li	      4.31788      1.91945      6.09265        -0.000326      0.029608     -0.044113
Li	      6.47009      4.04785      6.00581        -0.030739     -0.010295     -0.023640
Li	      2.06735      6.17995      4.17650         0.019976      0.043712     -0.032415
Li	      4.16367      6.21231      6.14516        -0.024352     -0.010353      0.007255
V	      4.24053      8.12766      4.18757        -0.155562     -0.092091      0.153749
V	      4.23731      4.10972      8.13794        -0.087346     -0.017577     -0.375857
V	      6.31056      6.18007      8.13376         0.007395      0.000591     -0.150916
Fe	      6.22299      4.23363      2.08090         0.098547     -0.025250      0.025450
Co	      4.23207      2.06886      2.08543         0.037545     -0.014103     -0.028203
Co	      6.26660      2.07177      4.14095        -0.048941      0.065378      0.014276
Co	      2.11048      4.22216      6.07742         0.032600     -0.152785     -0.426664
Ni	      8.34879      2.11396      6.12385         0.118629     -0.077405      0.031113
Ni	      2.19740      4.14386      2.01308        -0.018723      0.025353      0.118399
O	      2.32332      2.04819      2.08776        -0.026945     -0.021327      0.126330
O	      4.25014      3.99657      2.07983         0.014835     -0.015178      0.046065
O	      4.36896      2.06155      3.97059         0.001168     -0.026121     -0.036516
O	      6.30881      3.98853      4.02476         0.027911     -0.063080      0.083752
O	      6.33081      2.06315      6.02434        -0.079842     -0.031592     -0.106028
O	      8.40882      4.09744      6.21289        -0.016179      0.147846     -0.195713
O	      1.95344      4.14665      4.06157         0.069640      0.008131      0.339745
O	      4.19658      6.37063      4.06614        -0.003381      0.118530     -0.007564
O	      4.15944      4.17652      6.34972         0.220637     -0.004207      0.178648
O	      6.31910      6.27659      6.32156         0.018923      0.061564      0.132580
O	      6.20837      4.20586      8.26230         0.076540     -0.069298      0.046736
O	      8.31653      6.28427      8.20347         0.038323      0.030870      0.028493
O	      2.13979      6.18907      6.26774         0.001446      0.068076      0.012458
O	      4.23300      8.26704      6.13663        -0.311522      0.029711      0.018619
O	      4.28392      6.22442      8.20027        -0.025653      0.036117      0.044407
O	      6.30098      8.23358      8.30861         0.041189      0.038371     -0.171006
O	      6.30553      6.16761     10.08526         0.011797      0.000065      0.089486
O	      8.40647      8.27083     10.12932         0.005646     -0.020890     -0.000388
