# total energy = -217.11016287 eV
 
CRYSTAL
PRIMVEC
0.016617 6.250489 6.192808 
6.320755 0.023268 6.186547 
4.219586 4.168690 0.009524 
PRIMCOORD
36 1
Li	      2.13502      8.28531      6.23187         0.040202      0.004391      0.043857
Li	      2.17665      6.22907      8.16039         0.061627     -0.116328      0.022792
Li	      4.27853      8.28592      8.25725         0.074516      0.087257     -0.060615
Li	      6.31059      8.34376     10.26907        -0.031483      0.008436     -0.156043
Li	     10.47339      6.25984      8.30016        -0.044190      0.022706     -0.004174
Li	      8.43013      6.27336      6.21782        -0.068172      0.093221     -0.020213
Li	      2.15054      6.26550      4.15949        -0.044765      0.045862      0.031063
Li	      2.14854      4.28077      6.21866         0.001571      0.048727      0.146607
Li	      4.12152      6.23260      6.25866         0.029676     -0.040619     -0.030508
V	      6.34952      4.08390      6.21616        -0.306145      0.362437     -0.147804
V	      4.17336      8.30058      4.26214        -0.079542      0.127395      0.265766
V	      2.15011      2.10926      4.03610        -0.063628     -0.335413      0.496687
Fe	      0.15155      0.10679      0.07502        -0.224871     -0.025434     -0.181939
Co	      8.46748      4.25352      8.23890        -0.126910     -0.112164     -0.062262
Co	      4.21837      4.18617      4.10157         0.141842     -0.027316      0.160349
Co	      8.26036      8.33295      8.22706         1.357227      0.186457     -0.161432
Co	      6.34380      6.30674      8.20134        -0.256798      0.401174      0.047363
Cu	      4.23156      6.28662     10.29642         0.038022      0.020446     -0.245366
O	      2.10615      2.08722      2.25329         0.031286      0.166904     -0.381601
O	      4.15446      4.17744      2.04120        -0.720251      0.194864      0.197040
O	      4.08533      2.11976      4.12557         0.217050      0.015632     -0.013185
O	      6.39184      4.22642      4.20686        -0.157080      0.025633     -0.092066
O	      6.35937      2.22948      6.17138        -0.015003     -0.178030     -0.003542
O	      8.37095      4.18464      6.16298         0.215422     -0.106015      0.721810
O	      2.01857      4.07464      4.17587         0.146768      0.292772     -0.584269
O	      4.33817      6.32892      4.15326        -0.169022     -0.002871      0.004702
O	      4.37689      4.15812      6.16412         0.011342     -0.077026     -0.127461
O	      6.33773      6.05597      6.08718         0.034243     -0.148980     -0.458584
O	      6.33858      4.16782      8.24731         0.529735      0.194037      0.176354
O	      8.36428      6.29851      8.28003         0.011894     -0.180202      0.002401
O	      2.01002      6.30217      6.18101         0.276838      0.021578     -0.030366
O	      4.22700      8.39406      6.06651        -0.018926      0.010594     -0.223861
O	      4.30476      6.19861      8.28294        -0.096359     -0.289077      0.152916
O	      6.43703      8.37035      8.24544        -0.933487     -0.527429      0.034952
O	      6.22459      6.19780     10.39612         0.125484     -0.124175      0.263769
O	      8.61122      8.36277     10.22497         0.011885     -0.039442      0.216863
