# total energy = -217.49554569 eV
 
CRYSTAL
PRIMVEC
0.004967 6.281596 6.225554 
6.212060 0.007491 6.222989 
4.147432 4.192021 -0.001030 
PRIMCOORD
36 1
Li	      0.09669      6.22522      6.18559         0.021034     -0.028690      0.137962
Li	      2.11194      8.30128      6.25966         0.021981     -0.038231      0.008726
Li	      2.16576      6.26904      8.25438         0.046374     -0.066372     -0.037790
Li	      8.26424      4.22659      4.15680        -0.044572      0.050133     -0.003553
Li	      6.24936      6.26297      4.16272        -0.003842     -0.044090     -0.115409
Li	      4.10940      2.13782      6.20522         0.020304     -0.021943      0.028569
Li	      2.03971      6.27676      4.18940         0.065415      0.020078     -0.037531
Li	      4.10421      6.27659      6.25566        -0.027284      0.054930      0.069162
Li	      4.10060      4.24155      8.26968        -0.022880      0.062714      0.006888
V	      4.13568      6.25003      2.05883         0.071455      0.201896     -0.122898
V	      8.28722      4.19671      8.22826         0.015312     -0.032410     -0.115467
V	      6.30983      8.37460     10.44464        -0.082438     -0.014641     -0.122733
Fe	      2.12462      4.24784      6.17337        -0.064943     -0.147721      0.300393
Co	      4.15101      8.28937      8.29109        -0.140692      0.023866     -0.142038
Co	      6.15365      4.30439      6.21140        -0.051013     -0.180553     -0.032656
Co	     10.26628      8.45316     10.45555        -0.047159     -0.093103     -0.224139
Co	      6.07215      6.35935      8.30300         0.951815     -0.200292      0.093993
Ni	      4.15885      4.17841      4.14643         0.009484      0.089419     -0.048249
O	      2.00605      2.16437      2.05226        -0.126900      0.015827      0.032275
O	      4.06215      4.26154      2.06795        -0.058257      0.006201     -0.098777
O	      4.35363      2.12251      4.11525        -0.044785     -0.000554      0.070274
O	      6.19909      4.10155      4.22540         0.105751      0.040695      0.069881
O	      6.20679      2.13226      6.30634        -0.011087      0.005635      0.045934
O	      8.22602      4.18808      6.41881        -0.103839      0.049976      0.013526
O	      2.07315      4.15589      4.01990        -0.136487     -0.003761      0.007478
O	      4.13511      6.32829      3.88851        -0.050759     -0.022619      0.086832
O	      4.08241      4.21689      6.16695         0.264606     -0.008338      0.107035
O	      6.24372      6.40437      6.26720        -0.266910     -0.133194      0.529838
O	      6.22694      4.17552      8.30424         0.139003     -0.235009      0.041836
O	      8.32711      6.17387      8.28484        -0.238388     -0.106674      0.017490
O	      2.11362      6.08163      6.21754        -0.067897      0.361536     -0.079866
O	      4.29570      8.37367      6.22282        -0.140260     -0.000236      0.005040
O	      4.22354      6.27325      8.30772         0.170146      0.185237      0.060946
O	      6.27307      8.34240      8.38078        -0.054730      0.232384      0.007064
O	      6.20537      6.36074     10.33546        -0.274327      0.043186     -0.631726
O	      8.12974      8.39112     10.45021         0.156769     -0.065283      0.071691
