# total energy = -206.64016172 eV
 
CRYSTAL
PRIMVEC
0.008442 6.302781 6.022999 
6.411149 -0.009251 6.041355 
4.270561 4.209899 -0.002035 
PRIMCOORD
36 1
Li	      2.26218      8.41333      5.96502         0.046812      0.018972      0.074404
Li	      8.41385      4.05429      4.13922        -0.053008     -0.108484      0.023343
Li	      6.43775      2.22651      4.08886        -0.011621     -0.007099      0.007971
Li	      6.50425      6.20786      4.06766         0.082147     -0.001301      0.012826
Li	      4.26042      2.18274      5.93261         0.005748     -0.051818      0.004410
Li	      6.30010      4.21789      5.89415        -0.065935      0.033561      0.081411
Li	      4.18835      8.41669      4.13223        -0.008198     -0.024595     -0.067665
Li	      4.27339      6.27796      5.96890         0.053871     -0.021405      0.009289
Li	      8.54406      8.38642      8.04269         0.008027      0.017835      0.004720
V	      6.42679      2.15803      7.97349        -0.017226      0.057286      0.010116
V	      8.48746      4.21691      8.01088        -0.089097      0.008862     -0.067301
V	      6.24782      6.41068      8.03968         0.044899     -0.135771      0.001546
Fe	      8.56507      6.44961     10.14271         0.043623     -0.175978     -0.137566
Cu	      2.20036      6.33313      8.04712         0.216746     -0.010149     -0.024256
Ni	      0.01629      6.23847      5.95765        -0.064360      0.067959     -0.032381
Ni	      4.23104      2.12903      2.03194        -0.001481     -0.132864     -0.018045
Ni	      4.34334      4.18117      4.03589        -0.072889      0.204822     -0.028017
Ni	      2.16219      4.18092      5.94923        -0.020986     -0.097952      0.031385
O	      1.99081      2.20669      2.02930        -0.025153      0.005290     -0.020844
O	      4.19169      4.28806      2.04767        -0.091142      0.046733     -0.013984
O	      4.26379      2.29876      3.97635        -0.004096     -0.220657      0.149062
O	      6.42022      4.21978      3.90565         0.043900      0.046676      0.133377
O	      6.36149      2.02374      6.20072         0.052301      0.076105     -0.140898
O	      8.64408      4.19331      6.19904        -0.078725     -0.019233     -0.070649
O	      2.16248      4.28079      3.88420        -0.072577      0.034897     -0.047257
O	      4.18939      6.18994      3.88793         0.018443      0.129626      0.020035
O	      4.19565      4.20089      5.90434         0.145055      0.025734      0.294895
O	      6.44895      6.23838      6.26253        -0.020271      0.003511     -0.119807
O	      6.51745      4.15114      8.04120        -0.030340      0.046903     -0.042245
O	      8.55990      6.23725      8.07271         0.026978      0.009970     -0.021396
O	      2.10106      6.26553      6.09246         0.083705      0.075733      0.012631
O	      4.37748      8.43370      6.09230        -0.109245     -0.106899     -0.136138
O	      4.48116      6.29427      8.10012        -0.055233     -0.067877     -0.012408
O	      6.41457      8.20324      8.03368         0.065081      0.048933      0.109825
O	      6.52963      6.24690      9.90433        -0.014425     -0.000470      0.014915
O	      8.57296      8.30278     10.06831        -0.031327      0.223143      0.004698
