# total energy = -207.19733429 eV
 
CRYSTAL
PRIMVEC
-0.012059 6.252719 6.099653 
6.412307 -0.017351 6.104324 
4.258602 4.155299 0.005151 
PRIMCOORD
36 1
Li	      4.19807     10.25170      6.10560         0.024060      0.012701     -0.016067
Li	      2.29461      8.35705      6.11047         0.014343     -0.015199      0.040625
Li	      4.23385      0.08324      4.03253         0.012866     -0.053977      0.100526
Li	      6.29355      2.08283      4.04140        -0.001691     -0.054313      0.081694
Li	      4.27098      4.07334      4.10238        -0.053994      0.089295     -0.042782
Li	      4.26415      8.32614      4.22898         0.017367     -0.018655      0.002794
Li	      6.32991      8.26858      6.12401        -0.026110      0.021431     -0.059049
Li	      4.30150      6.30534      6.15620        -0.019022     -0.037774     -0.076933
Li	      4.23302      4.25284      8.06532         0.012309      0.003893      0.019511
V	      4.24750      6.20882      2.03336        -0.003288      0.075370     -0.009143
V	      8.53943      4.13871      8.12819        -0.021590     -0.127862      0.023560
V	      8.43162      6.38036     10.34228         0.248458     -0.112441     -0.119072
Fe	      6.27907      4.18517      6.00558         0.194856     -0.147624      0.196929
Cu	      6.54093     10.26894      8.22567         0.249996     -0.047942     -0.304691
Cu	      4.39354      8.24913      8.09941        -0.117948      0.200253      0.043116
Ni	      2.20135      2.09105      4.09390        -0.218519      0.162879     -0.125640
Ni	      4.25592      2.12227      6.01688         0.076500     -0.040548      0.086859
Ni	      6.36539      6.26462      8.12455         0.093948     -0.058677      0.078503
O	      4.24280      8.31803      6.20301         0.061431     -0.044781     -0.208400
O	      6.34420      8.32689      8.14029         0.275456      0.124084      0.042390
O	      1.95153      2.13046      2.07283        -0.040447     -0.051764     -0.136412
O	      4.09665      4.26413      1.98845        -0.049737     -0.071422      0.017363
O	      4.21240      2.07463      3.99516         0.160828     -0.006354     -0.056804
O	      6.40558      4.16727      4.06661         0.006763     -0.086073     -0.096872
O	      6.33758      2.14233      6.26127         0.040881     -0.072746     -0.225783
O	      8.45550      4.17542      6.24997        -0.013783     -0.103705     -0.189867
O	      2.11020      4.23697      3.90514        -0.024447     -0.006026      0.143694
O	      4.08827      6.25899      3.90039        -0.042731     -0.026415      0.166698
O	      4.38293      4.12456      6.10602        -0.157406      0.215432     -0.058944
O	      6.46741      6.16669      6.09736        -0.140883      0.147244      0.069159
O	      6.51238      4.10779      8.09651        -0.082673      0.028158     -0.014740
O	      8.57848      6.15063      8.19842        -0.049171      0.045956      0.078606
O	      2.15690      6.20746      5.96415         0.005089      0.019720      0.257185
O	      4.34879      6.29731      8.16614        -0.271559     -0.220238      0.060887
O	      6.65023      6.21806     10.14384        -0.168577     -0.001898      0.163285
O	      8.54802      8.10197     10.16994         0.008427      0.260017      0.067815
