# total energy = -207.19944065 eV
 
CRYSTAL
PRIMVEC
-0.000330 6.551796 6.193348 
6.178938 0.057539 6.134762 
4.152957 4.361433 0.006475 
PRIMCOORD
36 1
Li	      4.14512     10.84614      6.16440        -0.025307      0.046941      0.044519
Li	      6.14714      2.18559      4.10240         0.005913     -0.031106      0.024743
Li	      8.22239      4.60349      8.19547        -0.022868      0.072110     -0.019834
Li	      8.13447      6.74003      6.30935         0.015207     -0.057822     -0.017799
Li	      6.17568      4.53252      6.26106         0.014272      0.044538      0.047501
Li	      8.21874      6.52641     10.10580         0.004579     -0.020826      0.001387
Li	      6.26486      8.58829      6.12818         0.046319     -0.057239      0.061467
Li	      8.29172      8.52807      8.15753        -0.049245     -0.071309      0.074760
Li	      6.38381      6.40982      8.14836         0.105788      0.035980     -0.016815
V	      8.08124      2.22482      6.15090        -0.179486      0.190078     -0.000491
V	      4.28770      8.76754      8.22986         0.199352     -0.054450      0.004787
V	      8.30450     10.90355     10.31811         0.216992      0.039445      0.069927
Fe	      4.22793      6.50308      6.15521        -0.111081      0.133390      0.154513
Cu	      6.19443      4.38069      2.07272         0.003815     -0.072853     -0.217148
Cu	      4.12339      4.41376      4.16664        -0.040857     -0.041803      0.001648
Cu	      0.10933      4.39189      4.06602         0.002306      0.168003      0.226737
Ni	     10.21706      6.72652      8.26036         0.063247     -0.034862     -0.086711
Ni	      2.11210      2.27210      4.14203         0.009566     -0.068496     -0.079542
O	      8.29473      6.59287      8.19699        -0.178293     -0.043749      0.019816
O	      2.21003      2.36349      1.90269         0.023643     -0.001942      0.021217
O	      4.23821      4.24855      2.22495        -0.037247      0.000867      0.011751
O	      4.12616      1.98487      4.01461         0.091052     -0.076584     -0.016208
O	      6.28051      4.44588      4.05638        -0.084120     -0.058590      0.001783
O	      6.31711      2.17712      6.21412         0.129279      0.002872     -0.097095
O	      8.25799      4.17319      6.04405        -0.058368     -0.049976     -0.026361
O	      2.18855      4.33897      4.13130        -0.001143      0.108471     -0.007675
O	      4.23410      6.78736      4.15858        -0.127245     -0.126311     -0.113822
O	      4.09154      4.54095      6.05682         0.041908     -0.079701     -0.055354
O	      6.14085      6.55815      6.16521         0.047267      0.002027      0.060500
O	      6.16645      4.37076      8.29508         0.001431      0.136580     -0.096041
O	      2.10480      6.83695      6.22451         0.047296     -0.008498     -0.014895
O	      4.06904      8.70954      6.21802        -0.068766      0.015932     -0.051827
O	      3.99961      6.73201      8.22214         0.025939     -0.012981      0.044920
O	      6.03536      8.66248      8.21157        -0.075850     -0.006534      0.006116
O	      5.97288      6.48092     10.23973        -0.039204      0.020758      0.047236
O	      8.15997      8.88654     10.46232         0.003905     -0.042361     -0.007709
