# total energy = -206.97876566 eV
 
CRYSTAL
PRIMVEC
-0.032870 6.089109 6.679755 
6.290625 -0.005093 6.655732 
4.206711 4.054397 -0.018539 
PRIMCOORD
36 1
Li	      4.22918      2.08980      2.44621         0.048647      0.006750      0.043076
Li	      6.17976      6.06660      4.52690        -0.046906      0.101722     -0.104952
Li	      4.16584      3.99785      4.59869        -0.010363      0.022156     -0.105912
Li	      3.99238      2.17401      6.44782         0.099129     -0.049419      0.054285
Li	      6.06938      4.18122      6.67009         0.045900     -0.038837     -0.049773
Li	      8.42349      6.21661     11.03039        -0.018382     -0.067371     -0.123846
Li	      4.34811      6.00449      6.30176        -0.128368      0.045564      0.001384
Li	      4.22218      3.96721      8.48914         0.047915     -0.041047      0.033759
Li	      6.15349      6.20769      8.44389        -0.027143      0.028769      0.040472
V	      4.19850      3.99674      0.15785        -0.018997      0.012373      0.219546
V	      2.45945      5.99504      9.00952        -0.121498      0.080640     -0.040350
V	      8.23273      4.35419      8.91359        -0.034595     -0.071050      0.037005
Fe	      8.44029      4.08591      4.66392        -0.090595      0.061667     -0.195884
Cu	      6.30781      8.07459     11.17325         0.057273     -0.020755      0.116735
Cu	      4.24313      6.08448      2.27545        -0.062643     -0.071398     -0.012062
Cu	      4.17491      8.10359      4.48265        -0.166259      0.140605      0.065811
Cu	      2.17801      4.00348      6.63151        -0.203724      0.111679      0.027056
Ni	      2.10828      8.04050      6.77988         0.063012      0.012126      0.140428
O	      6.22617      8.32180      8.91535         0.024637     -0.100023     -0.037123
O	      2.23559      1.73107      2.17701         0.019402     -0.099574     -0.008089
O	      3.85243      4.04834      2.12029         0.250734     -0.061497      0.097069
O	      4.37649      1.92082      4.46106        -0.128318      0.006358      0.051554
O	      6.38319      4.02356      4.19957         0.159005      0.055167      0.147174
O	      6.38622      1.81074      6.90192        -0.084114      0.224916     -0.069472
O	      8.48782      4.03269      6.75503        -0.071144      0.012565     -0.057520
O	      1.98274      4.07646      4.00053        -0.015064      0.019177      0.150074
O	      4.10880      6.22234      4.21706         0.064384     -0.152827      0.134963
O	      4.10755      4.08929      6.55770         0.108896      0.085429     -0.050039
O	      6.24934      6.16002      6.50091        -0.054714     -0.028926     -0.044652
O	      6.50526      3.97387      8.62289        -0.244631      0.072674     -0.180012
O	      8.17030      6.06849      8.83979        -0.160497      0.209303     -0.004199
O	      1.99367      6.01108      7.04112         0.193458     -0.220927     -0.067623
O	      4.20881      8.23294      6.74134         0.154280     -0.189050      0.133211
O	      4.19381      5.93070      9.09554         0.248001      0.051768     -0.042457
O	      6.25092      6.05420     11.46383         0.059508     -0.073585     -0.232732
O	      8.32710      8.17133     11.38662         0.043774     -0.075124     -0.066905
