# total energy = -206.37909368 eV
 
CRYSTAL
PRIMVEC
-0.050940 5.852809 7.158832 
5.973908 -0.046941 7.146490 
3.999346 3.916059 -0.042687 
PRIMCOORD
36 1
Li	      7.93740      9.72791     11.89459         0.011417      0.008656      0.001492
Li	      7.86116      3.89671      9.63670        -0.028036      0.047693      0.059692
Li	      3.88058      3.95622      4.96379         0.056607     -0.057619      0.093902
Li	      7.94624      5.86102      7.42604         0.001349     -0.032729      0.051043
Li	      5.89022      3.86360      7.29068        -0.041481      0.042111      0.023385
Li	      8.04192      5.74203     11.65355         0.000973      0.025300     -0.076513
Li	      4.01129      5.79356      7.24329         0.026659     -0.013738     -0.046655
Li	      3.95002      3.84577      9.23066         0.031994     -0.003962     -0.065331
Li	      6.02186      5.78249      9.57307         0.044596     -0.067762      0.098620
V	      7.94338      7.78246     14.17974        -0.006696      0.001501      0.045920
V	      3.99839      1.96141      2.46867         0.053796     -0.077571     -0.077869
V	      5.94688      7.76507     11.90874        -0.097530     -0.005134      0.004615
Fe	      5.92458      5.86489      5.01403         0.276549     -0.340044     -0.018330
Cu	     -0.03624      5.85991      7.16134        -0.142549      0.096048     -0.087713
Cu	      2.01262     -0.00731      2.41746         0.089135     -0.106063      0.046404
Cu	      9.90584      5.83140      9.48160         0.081408     -0.056545     -0.089634
Cu	      5.92462      3.87506     11.73891        -0.047550      0.151376      0.100836
Cu	      1.98915      3.91591      7.11295        -0.097838     -0.015664      0.108340
O	      3.92036      5.99707      9.49258         0.004156     -0.025645     -0.015773
O	      5.92787      5.92406     11.77769         0.013400     -0.132285     -0.151012
O	      1.92265      1.91426      2.02621        -0.098464      0.069752      0.004021
O	      4.02248      3.88653      2.37851        -0.017321      0.139315      0.092003
O	      3.93796      1.93562      4.44460        -0.072986      0.024521      0.040093
O	      5.98862      3.79586      4.85710        -0.025769      0.139608      0.056129
O	      6.03097      1.86625      6.79005        -0.013586      0.042133     -0.072111
O	      8.03452      3.72294      7.11187        -0.025997      0.025115     -0.056244
O	      1.89255      3.82945      4.61331        -0.053979      0.088313     -0.165763
O	      4.04443      5.89002      4.70694        -0.128810      0.080913      0.089369
O	      3.80662      3.89045      7.13890         0.234696      0.043351     -0.011031
O	      5.98807      5.96633      6.97409        -0.014677     -0.103482      0.082901
O	      5.89554      3.74510      9.33763         0.038728      0.099625     -0.022000
O	      8.07792      5.81154      9.45183        -0.155394      0.015351      0.050025
O	      1.94349      5.85367      7.12489        -0.010269      0.009621     -0.025094
O	      4.03777      7.84367      7.48988         0.023505     -0.069702      0.102017
O	      5.91183      7.84548      9.87037         0.032159     -0.035003     -0.027181
O	      7.96531      7.75919     12.21831         0.057803     -0.007359     -0.142552
