# total energy = -207.26154569 eV
 
CRYSTAL
PRIMVEC
0.010629 6.327048 6.175596 
6.337479 -0.012319 6.198017 
4.209737 4.218152 0.007304 
PRIMCOORD
36 1
Li	      8.33636      8.49309     12.19157        -0.055846      0.027665      0.093065
Li	      8.55164     10.38151     10.29145        -0.022520      0.005561     -0.049003
Li	      4.21467      6.30801      2.16929         0.028169      0.080245      0.000356
Li	      6.23882      6.31580      4.17088         0.018741     -0.003744      0.017432
Li	      6.34199      4.08051      6.20826         0.034337     -0.008896      0.030792
Li	     10.31253      8.34882     10.33804         0.045529      0.015116     -0.041849
Li	      8.53844      6.52849     10.31166        -0.014034     -0.007634      0.007017
Li	      8.44357      8.42916      8.39287        -0.017990      0.032994      0.001337
Li	      6.31496      6.31414      8.40197        -0.043596     -0.013382     -0.048648
V	      2.22936      0.15801      2.11958         0.007596     -0.016892     -0.006080
V	      8.26294      4.40196      8.34025        -0.367468     -0.108181      0.057572
V	      6.34713      8.36608      6.22615         0.063679      0.051803     -0.011737
Fe	      6.33731      6.40618     12.26178         0.098944     -0.102966      0.061721
Ni	      4.23757      2.14003      2.11901        -0.013203     -0.087305     -0.049060
Ni	      6.40320      8.36894     10.31003         0.039592      0.085121     -0.076792
Ni	      4.22825      2.08161      6.12457        -0.109263     -0.040322      0.019982
Ni	      4.26816      6.32605      6.08413         0.000837      0.025405      0.095266
Ni	      4.22846      4.23968      4.09855        -0.016227      0.068230     -0.012326
O	      8.39776      8.44622     10.28622         0.077740     -0.006824      0.042049
O	      2.13340      1.95136      2.02404        -0.026671      0.028065     -0.020137
O	      4.29127      4.18987      2.01278         0.067869      0.037777     -0.106729
O	      4.30968      2.17956      4.11673        -0.040559     -0.026758     -0.031534
O	      6.32098      4.19149      3.90949         0.056434      0.015801      0.014875
O	      6.26543      2.05128      6.20601         0.039962      0.069258      0.104552
O	      8.52977      4.15894      6.46497        -0.017459     -0.060007      0.055896
O	      2.17473      4.14036      3.94821        -0.076464      0.011931     -0.066236
O	      4.22047      6.25349      4.15030        -0.016499      0.032785     -0.171791
O	      4.04429      4.22261      6.18718        -0.028890     -0.025704      0.037031
O	      6.35611      6.44867      6.24207        -0.076436     -0.066690      0.015280
O	      6.54082      4.19447      8.25862         0.172905      0.046117      0.012279
O	      8.40831      6.13957      8.26243         0.055980     -0.003486      0.077634
O	      2.07682      6.22596      6.31665         0.012509      0.032433     -0.021321
O	      4.44783      8.46006      6.18959         0.024106      0.045959     -0.070869
O	      4.04971      6.36407      8.16667         0.009897     -0.025202      0.067737
O	      6.32185      8.59476      8.15761         0.088351     -0.013817      0.015695
O	      6.31679      6.32065     10.37949        -0.000053     -0.094455     -0.043455
