# total energy = -214.21007127 eV
 
CRYSTAL
PRIMVEC
-0.034174 6.349162 6.083905 
6.357231 -0.019526 6.069616 
4.225667 4.210371 -0.000817 
PRIMCOORD
36 1
Li	      6.41172     10.39113      8.10269         0.037000     -0.121102      0.005515
Li	      4.29542      8.38852      8.09688         0.011286      0.006831      0.012725
Li	      6.36127      8.43567     10.04163         0.010470      0.017507      0.035691
Li	      6.36210      2.16660      8.10225        -0.006877      0.023429      0.028245
Li	     -0.01623      4.22934      4.04954        -0.010148     -0.027564      0.042223
Li	      8.43744      6.31431     10.12893         0.009636     -0.011791      0.026334
Li	      6.32093      8.47576      6.14398         0.006434      0.016585     -0.067844
Li	      4.15385      6.34503      6.16635        -0.037968     -0.009071     -0.039334
Li	      8.34344      8.51666      8.14310        -0.009996     -0.028605     -0.002147
V	      2.14559      8.34235      6.08328        -0.129469      0.113488      0.059823
V	      4.17609      4.33128      3.97820        -0.035314     -0.070936     -0.039057
V	      4.27899      2.16698      6.10773        -0.041021      0.188884     -0.164096
Fe	      4.27087     10.46295      6.08590         0.037825     -0.016110      0.025734
Fe	      6.22881      6.44786      8.17015         0.024873     -0.155874     -0.132873
Co	      6.31553      4.23012      6.08898         0.013270     -0.143393     -0.062671
Cu	      4.20989      6.29754     10.05975        -0.023635     -0.010311     -0.067404
Ni	      8.42811      4.20884      8.09217        -0.049298     -0.001445      0.031598
Ni	      2.09519      2.13374      3.98564        -0.006628      0.036402     -0.032278
O	      2.04790      2.18460      1.88126        -0.015336     -0.065735      0.027854
O	      4.15756      4.19653      2.02694         0.072007      0.037645      0.048919
O	      4.19317      2.27688      4.16791         0.064478      0.052565     -0.012787
O	      6.25588      4.25935      4.14747         0.048698     -0.120677      0.228436
O	      6.27281      2.14116      6.07806         0.097766     -0.089999     -0.008326
O	      8.53725      4.26619      5.97745         0.096690     -0.053165      0.066019
O	      2.22648      4.18287      4.02987        -0.043957      0.083874      0.143382
O	      4.24608      6.13411      4.07406        -0.091148      0.144655      0.009575
O	      4.24756      4.10575      6.02081        -0.091171      0.047463      0.032395
O	      6.48417      6.21364      6.07327        -0.052907      0.145570      0.069799
O	      6.38800      4.29886      7.97334        -0.057223      0.024534     -0.167236
O	      8.41519      6.29214      7.93492        -0.013372      0.076953      0.143852
O	      1.99982      6.42540      6.12768         0.088207     -0.112084      0.003294
O	      4.07619      8.49341      6.08665         0.079936     -0.102578     -0.010169
O	      4.25761      6.31533      8.16767        -0.084879     -0.011535     -0.185073
O	      6.33384      8.32396      8.09081         0.000969      0.158745      0.071742
O	      6.31193      6.28814     10.16640         0.086519      0.007662      0.035141
O	      8.39125      8.37943     10.34905         0.014285     -0.030819     -0.156999
