# total energy = -91.57465659 eV
 
CRYSTAL
PRIMVEC
2.006811 2.003461 0.000262 
-2.034791 0.031738 2.219406 
10.193502 10.956143 0.030657 
PRIMCOORD
16 1
Li	      0.94721      1.05045      0.97402         0.019321     -0.011732      0.011771
Li	      3.05521     -3.05202      3.28700        -0.000021     -0.001683      0.003351
Li	      5.13272     -5.12172      7.82148        -0.019168      0.015337     -0.012534
Li	      7.13267     -9.13833      9.87504        -0.000754     -0.000629      0.003649
Mn	      0.97979     -0.98011      3.26895         0.006491     -0.002851     -0.005596
Mn	      5.10070     -3.09012      5.52754        -0.009091      0.011486      0.002795
Ni	      7.15344     -7.15090      7.71037        -0.008763      0.011201     -0.000062
Ni	      9.11729     -9.12147     12.04505         0.003705     -0.012446      0.000200
O	      2.93041     -0.92640      3.32979         0.000911     -0.000378     -0.009390
O	      5.04217     -5.03706      5.57220         0.010465     -0.022762      0.009577
O	      7.02826     -7.02404      9.89405         0.127453     -0.138090      0.054055
O	      9.02205    -11.03204     12.02421         0.130848     -0.135667      0.030911
O	     -0.96891     -1.03558      3.22411        -0.005046      0.005201     -0.009031
O	      3.15029     -3.14413      5.46749        -0.006485      0.006214      0.006118
O	      5.24184     -7.24407      7.73088        -0.129188      0.141259     -0.033802
O	      9.24198     -9.24835      9.86240        -0.120678      0.135541     -0.052009
