# total energy = -214.14840353 eV
 
CRYSTAL
PRIMVEC
-0.040310 6.053059 6.244452 
6.439568 -0.031483 6.235125 
4.267631 4.003138 0.004837 
PRIMCOORD
36 1
Li	      8.34712      1.90970      6.21838         0.025053     -0.020475     -0.032695
Li	      2.19115      6.05797      8.32300         0.058124     -0.049416     -0.025739
Li	      4.26193      1.98235      2.09371         0.038633     -0.030970     -0.058905
Li	      6.43470      1.95522      4.25558        -0.019478      0.021139     -0.029755
Li	      6.44082      1.99830      8.10697        -0.053083     -0.009739      0.045959
Li	      4.52503      1.96334      6.17220        -0.073903      0.046814      0.036543
Li	      6.43317      3.87959      6.19845        -0.068404      0.003913     -0.019302
Li	      8.50837      6.05505     10.46847         0.010899      0.016387     -0.036495
Li	      6.35411      6.00614      8.35394         0.014038      0.033668      0.025983
V	      8.48040      3.93493      8.25072        -0.022899      0.266590     -0.040932
V	      2.15492      4.05270      6.28328         0.022001      0.016894     -0.037301
V	      8.54215      7.91412      8.36900        -0.059115     -0.039697      0.008233
Fe	      8.52850      4.01246      4.26335        -0.208365     -0.049150     -0.066519
Fe	      4.38379      4.00852      4.04426        -0.006282     -0.027459      0.181257
Co	      4.29647      6.03590      6.28467        -0.008758     -0.025488      0.090837
Cu	     10.67887      4.01734      6.26524         0.083174     -0.139865      0.054176
Cu	      4.20419      8.02529      4.20361        -0.045710     -0.002734      0.047061
Ni	      2.15524      2.02399      4.16190         0.010665     -0.046191      0.091943
O	      2.08824      2.19273      2.10020        -0.003879     -0.174078     -0.173304
O	      4.07132      4.05564      2.08268        -0.007485     -0.003440     -0.121421
O	      4.22457      1.98304      4.12635         0.098557      0.071548     -0.059169
O	      6.36838      4.01854      4.10106         0.082791     -0.074266     -0.015043
O	      6.43928      1.89613      6.20904        -0.048495      0.155946      0.043432
O	      8.39475      4.00907      6.30369        -0.177613     -0.032144      0.095758
O	      2.31857      4.08263      4.13854         0.109659      0.121417     -0.027223
O	      4.34745      6.04414      4.37027        -0.066501     -0.035129     -0.132125
O	      4.21720      4.06560      6.26149         0.039216      0.040207      0.001173
O	      6.25340      6.16879      6.21361         0.048869      0.036558      0.156283
O	      6.41897      3.99417      8.41295         0.057952     -0.033030     -0.071843
O	      8.52203      6.05155      8.32283         0.070729      0.069947      0.005843
O	      2.34065      5.94578      6.25721         0.092220      0.007868     -0.080037
O	      4.43548      8.02069      6.25872        -0.006553      0.023264      0.029106
O	      4.29339      5.87964      8.26371         0.036389     -0.045065      0.053728
O	      6.57675      8.02028      8.18966        -0.061446     -0.107633      0.053388
O	      6.19272      5.94511     10.49643         0.161685     -0.002660      0.003423
O	      8.40583      8.06774     10.27321        -0.122683      0.016469      0.003680
