# total energy = -216.15040409 eV
 
CRYSTAL
PRIMVEC
-0.018678 6.167835 6.252271 
6.323431 -0.005540 6.239131 
4.217866 4.105356 -0.005984 
PRIMCOORD
36 1
Li	      8.34547      8.22442     12.30012        -0.001905      0.039341     -0.053854
Li	      4.21889      2.05579      2.17312        -0.019196     -0.039416      0.024863
Li	      8.29408      4.14241      4.13673        -0.013846      0.030331      0.034697
Li	      6.42261      2.09559      4.21883         0.017015     -0.013432      0.064383
Li	      6.23730      2.04677      8.23157        -0.023968      0.034182     -0.044916
Li	      4.29172      2.06643      6.17442         0.066346     -0.024548     -0.003332
Li	      6.30082      4.03084      6.20205         0.034453     -0.020835      0.043171
Li	     10.46378      8.19157     10.40021         0.011780     -0.020196     -0.016424
Li	      2.11740      4.11193      6.25877        -0.021121     -0.043138     -0.018388
V	      8.38078      3.92650      8.18486        -0.080621      0.200887     -0.065138
V	      4.19590      6.27219      6.29605         0.126697     -0.061704     -0.076531
V	      6.33583      6.30902      8.38335         0.081291     -0.079608     -0.032519
Fe	      6.39667      0.12252      6.18846        -0.179512     -0.148271     -0.074112
Fe	      4.28290      4.02293      4.22378        -0.394453      0.249405     -0.046051
Co	      2.11895      6.15608      4.15406         0.092071      0.064433     -0.132730
Co	      4.26692      4.06874      8.33549        -0.014216     -0.032404      0.052838
Cu	      6.29111      4.08376      2.09052        -0.005997     -0.047224      0.098183
Cu	      6.36105      6.14778      4.22923        -0.137891      0.247057      0.102104
O	      2.01588      2.20615      2.01971         0.046792     -0.306924     -0.000435
O	      3.99506      4.12083      2.04422         0.134445     -0.030960      0.032302
O	      4.11872      2.11883      4.19128         0.253846     -0.218467     -0.047523
O	      6.23115      4.20412      4.17123         0.223247     -0.354224     -0.308785
O	      6.32680      1.97548      6.21561         0.043705      0.149952      0.020365
O	      8.51421      4.11641      6.36818         0.056050     -0.044846     -0.047680
O	      2.19695      4.13146      4.00055         0.015880      0.140802      0.015796
O	      4.13435      6.09710      4.29411        -0.111002      0.040311     -0.027513
O	      4.17089      4.25726      6.29191         0.010662      0.026963      0.029318
O	      6.16627      6.18322      6.42600        -0.045088      0.002076      0.127057
O	      6.55197      4.22972      8.31743        -0.061073     -0.016493     -0.016506
O	      8.37333      6.14099      8.42565        -0.047211     -0.058601      0.078482
O	      2.10131      6.14548      6.13002         0.071086     -0.048572      0.248427
O	      4.17692      8.08393      6.28237        -0.013021      0.091817      0.013090
O	      4.34992      6.07311      8.31426        -0.074633      0.110512      0.005695
O	      6.27638      8.08993      8.37356        -0.016954      0.173671     -0.007519
O	      6.48876      6.10609     10.39871        -0.020181      0.014973      0.015682
O	      8.47138      8.06293     10.26782        -0.003476     -0.006847      0.013503
