# total energy = -216.82908177 eV
 
CRYSTAL
PRIMVEC
0.006903 6.177193 6.359433 
6.234179 0.019473 6.346877 
4.167525 4.120914 0.001762 
PRIMCOORD
36 1
Li	      4.20554      6.15710     10.53251        -0.038305      0.031532     -0.059547
Li	      8.29358      4.13767      8.40742        -0.040743      0.038145     -0.047633
Li	      4.19044      4.13964      4.25244         0.036017     -0.028243     -0.016435
Li	      8.27653      6.18268      6.36063         0.002710     -0.028819      0.034606
Li	      6.20194      4.21666     10.52293        -0.035499      0.012107     -0.071030
Li	      6.26644      8.23750      6.44476         0.006007      0.005420      0.026208
Li	      4.16712      6.20037      6.41730        -0.020532      0.044210      0.113623
Li	      4.16370      4.20115      8.47517         0.103769      0.056794     -0.038725
Li	      6.19173      6.17619      8.51974        -0.060474     -0.075160     -0.011587
V	     10.27126      6.20999      8.50553        -0.196931     -0.085839     -0.014051
V	      2.09853      2.20826      4.24336        -0.001115     -0.070407      0.155761
V	      6.15122      4.20319      6.35255         0.040063     -0.016041     -0.047960
Fe	      2.15772      8.22786      6.30002        -0.067686     -0.121586     -0.010693
Fe	      6.23697      8.18588     10.47662        -0.039406      0.194535      0.329723
Co	      2.16253      6.14525      8.44187        -0.164347      0.196497      0.214421
Co	      4.20470      8.23326      8.46682         0.225558      0.080369      0.142624
Ni	     10.36080      4.11983      6.33111         0.009758     -0.008567      0.059291
Ni	      2.09300      6.12352      4.29014         0.109002     -0.106460      0.041486
O	      1.93207      2.06210      2.18751         0.734629     -0.332939     -0.107350
O	      4.18895      4.08640      2.06484         0.570353      0.097267      0.045344
O	      4.12364      2.08025      4.07456         0.148339      0.068671     -0.091583
O	      6.24430      4.20868      4.30800         0.022138     -0.058006      0.098217
O	      6.25916      2.11167      6.41705         0.001082      0.030524      0.013562
O	      8.18976      4.05510      6.35384        -0.103656      0.047417      0.058037
O	      2.10316      3.99188      4.27722        -0.010077     -0.108713     -0.053387
O	      4.25970      6.19890      4.12397         0.037750      0.012633     -0.115222
O	      4.37221      4.10898      6.34954        -0.046771      0.024009      0.064904
O	      6.29866      6.12133      6.21678         0.020946      0.086680     -0.115119
O	      6.23727      4.03200      8.36299        -0.039043      0.010511     -0.017271
O	      8.48837      6.13490      8.53811         0.149166     -0.026931     -0.069401
O	      2.05637      6.23188      6.33588         0.090307     -0.053734      0.001978
O	      4.10285      8.25629      6.53028         0.127241     -0.088380      0.130590
O	      4.14546      6.37072      8.48094        -0.491988     -0.266971     -0.117178
O	      6.29278      8.21964      8.54099        -0.946278      0.362375     -0.256116
O	      6.27308      6.23864     10.64386        -0.089031     -0.015808     -0.176298
O	      8.25760      8.21447     10.66288        -0.042953      0.092907     -0.093791
