# total energy = -219.06974757 eV
 
CRYSTAL
PRIMVEC
0.001020 6.211506 6.371314 
6.196237 0.035800 6.335574 
4.128234 4.114868 0.026809 
PRIMCOORD
36 1
Li	      2.06556      2.00974      0.10100         0.011540      0.017612      0.016570
Li	      6.09794      4.18931      2.13045         0.025738      0.046257     -0.014596
Li	      4.06193      2.17500      2.15956        -0.022673     -0.060531     -0.041709
Li	      4.14721      6.24519     10.54194         0.000925     -0.077234     -0.040680
Li	      4.13873      6.11866      2.18955         0.033877      0.080844      0.001712
Li	      4.12363      4.15552      4.08562         0.012633      0.000816      0.010515
Li	      4.15190      2.10968      6.25944         0.015677      0.025038     -0.160105
Li	      6.17491      4.20495     10.56867        -0.056063     -0.001081      0.083466
Li	      6.21670      6.18884      8.56880        -0.092090      0.005841      0.023207
V	      6.34498      4.13030      6.34534        -0.136493      0.053092     -0.199015
V	      6.12437      8.24579      6.40234        -0.006865      0.230379      0.124973
V	      8.29691      8.27884      8.55024        -0.025978      0.378813      0.052798
Fe	      6.06307      2.06164      4.19372         0.168801      0.037506      0.029212
Fe	      2.07200      2.08201      4.08001         0.084459     -0.055988      0.226576
Co	      8.25893      4.19148      8.48234         0.303659      0.077333      0.088662
Co	      2.10114      6.20314      4.29101         0.317232     -0.032235     -0.000952
Co	      4.16935      6.20839      6.34806        -0.087263     -0.187464      0.292738
Cu	     10.29548      4.23560      6.42512        -0.160240      0.024197     -0.050286
O	      2.05001      2.14251      2.18143        -0.156088     -0.454559     -0.131775
O	      4.00662      4.17011      2.00163         0.370483      0.060738     -0.043343
O	      4.12271      2.05825      4.16435        -0.039974      0.058350     -0.051978
O	      6.14866      4.14898      4.35343        -0.023061      0.026119      0.060565
O	      6.16147      2.22590      6.22359        -0.054134     -0.111852      0.091486
O	      8.11234      4.16572      6.31789        -0.088681     -0.014091      0.004648
O	      2.11019      4.20224      4.42601        -0.054573     -1.002538     -0.204564
O	      4.11759      6.22340      4.32631         0.453798      0.032429     -0.146524
O	      4.09768      4.10149      6.50756         0.058334     -0.109595      0.048702
O	      6.25651      6.20514      6.26686        -0.139560     -0.097052      0.040065
O	      6.17368      4.15249      8.35287        -0.313630     -0.007804     -0.010373
O	      8.24933      6.26932      8.67417        -0.071405      0.202913      0.117696
O	      2.12388      6.11087      6.25337         0.260213     -0.063999     -0.045634
O	      4.31110      8.24019      6.47018         0.191658      0.026577      0.049705
O	      4.14974      5.97959      8.48416        -0.011851      0.083650     -0.096014
O	      6.27598      8.25300      8.46610         0.027349     -0.084810      0.085171
O	      6.32974      6.29085     10.74483        -0.721342     -0.105093      0.046191
O	      8.21899      8.17945     10.53937        -0.074415      0.997425     -0.257110
