# total energy = -218.11814160 eV
 
CRYSTAL
PRIMVEC
0.028847 6.293385 6.277572 
6.245933 0.042271 6.264079 
4.171480 4.194077 0.020392 
PRIMCOORD
36 1
Li	      2.07937      2.07487      0.06647         0.098703     -0.048473      0.117631
Li	      2.18927      6.34268      8.39289        -0.201657      0.227657     -0.064895
Li	      4.11955      8.31729      8.36488        -0.114213      0.009006     -0.101896
Li	      4.07811      0.06615      4.10801        -0.010026      0.028128      0.120522
Li	      6.25183      2.18551      4.18707         0.000645      0.045756     -0.040953
Li	      2.11746      4.16168      2.08684         0.010968     -0.156656      0.047470
Li	      6.28520      6.23194      4.17847        -0.015927      0.055754     -0.136934
Li	      8.35878      6.31284      6.29995        -0.075938      0.033385      0.017799
Li	      4.17906      6.31557      6.35738         0.038073      0.019279     -0.110047
V	     10.30396      4.27373      6.33618         0.258555     -0.278246      0.181508
V	      4.21377      8.36244      4.22986         0.450662     -0.154352      0.567199
V	      4.24972      4.06628      4.18249        -0.262879      0.094551      0.362416
Fe	      8.34417      6.35241     10.45875        -0.043502     -0.249948      0.477143
Fe	      4.16013      4.31780      8.33346        -0.144266     -0.330474     -0.376105
Co	      0.20451      2.06825      2.06335        -1.477033     -0.359586     -0.055438
Co	      6.26244      8.25682      6.36389        -0.140523      1.339958     -0.687004
Co	      6.23539      6.42286      8.31301         0.107621     -0.123480      0.005175
Ni	      6.33906      4.21256      6.24999        -0.000327      0.236564      0.045931
O	      1.98491      2.11841      2.10399         0.166440     -0.116713     -0.046963
O	      4.15479      4.25310      2.09991         0.304721      0.834050     -0.081447
O	      4.13490      2.32275      4.14320         0.081001     -0.145760     -0.048623
O	      6.13720      4.23013      4.25662         0.119515     -0.102063     -0.248075
O	      6.25871      2.06373      6.32613         0.329031      0.035388      0.889179
O	      8.48356      4.23984      6.26096         0.017733      0.079206     -0.059740
O	      2.09977      4.25192      4.21499         0.054954      0.209299     -0.496620
O	      4.11576      6.23509      4.16975         0.246012     -0.165388     -0.746512
O	      4.18331      4.23169      6.21193         0.541898     -0.004476      0.011236
O	      6.28196      6.34976      6.29637        -0.002730     -1.343809      1.647542
O	      6.25330      4.23361      8.39006         0.067747      0.295338     -0.174618
O	      8.36107      6.43639      8.44384        -0.729877      0.051259     -0.306792
O	      1.89384      6.18731      6.21429        -0.174550      0.544814     -0.071184
O	      4.19086      8.45130      6.22366        -0.408775      0.270186     -0.170346
O	      4.22322      6.25902      8.36361         1.272760      0.324058      0.003175
O	      6.34494      8.43707      8.35503        -0.116308     -1.459079      0.619537
O	      6.30244      6.28878     10.52008        -0.035345      0.252690     -0.928281
O	      8.46731      8.36498     10.41796        -0.213164      0.052175     -0.160990
