# total energy = -211.60439366 eV
 
CRYSTAL
PRIMVEC
-0.028394 6.355057 6.329090 
6.165987 0.017858 6.282563 
4.114757 4.210128 0.007774 
PRIMCOORD
36 1
Li	      6.10054      0.19387      6.32070        -0.035639      0.007728      0.022350
Li	      6.12373      2.16636      4.33453         0.000929      0.030206     -0.048351
Li	      6.16114      2.22039      8.23069         0.003324      0.030445      0.067081
Li	      8.15017      4.20915      8.23609         0.011574     -0.023486     -0.007551
Li	      6.20508      6.25365      4.33537         0.023397     -0.047024     -0.104687
Li	      4.18572      4.18581      4.32063         0.062685     -0.060409     -0.068375
Li	      6.10975      4.23269      6.38258         0.027329     -0.000943      0.026990
Li	      4.25875      6.22280      6.33072         0.014522     -0.011951      0.001427
Li	      6.16242      6.24574      8.21874         0.009652     -0.046929      0.050041
V	      2.01192      0.02219      2.05694        -0.072695      0.094450     -0.036473
V	      4.08655      8.49979      8.33160        -0.064666      0.051594      0.199714
V	      2.04723      6.24849      4.18940        -0.024904     -0.020109     -0.023495
Fe	      4.11410      0.06569      4.24285        -0.005714     -0.015654     -0.108043
Fe	      6.13361      4.23523     10.46192         0.048570     -0.046900      0.189875
Cu	      4.12036      2.15910      6.27945         0.068234     -0.130711      0.060286
Ni	      8.08875      2.17989      6.29232         0.006595     -0.025727      0.021926
Ni	      6.22194      8.36708      6.33010        -0.114275      0.108907     -0.038293
Ni	      4.12301      4.27355      8.34808        -0.003044      0.069444      0.096591
O	      6.26885      6.36896      6.26907        -0.028487     -0.160064     -0.002649
O	      2.12137      2.02953      2.03864        -0.036850      0.078171      0.066596
O	      4.17923      4.08570      2.11382        -0.062204      0.014217     -0.013689
O	      4.15443      2.00509      3.89067        -0.042357      0.060950     -0.054529
O	      6.22877      4.23379      3.92777        -0.022154      0.012042      0.139653
O	      6.07856      2.15464      6.29867        -0.003910      0.060682     -0.026328
O	      8.19552      4.25891      6.16688        -0.041402      0.084449      0.075780
O	      2.00798      4.42068      4.27766         0.071018      0.015772     -0.096790
O	      3.86615      6.41746      4.34687        -0.040723     -0.057628      0.029624
O	      4.10519      4.16999      6.34495         0.110814      0.030329     -0.096448
O	      6.14523      4.23317      8.57121         0.073890      0.018156     -0.154245
O	      8.17334      6.42894      8.73649        -0.003721     -0.105115     -0.054729
O	      2.00210      6.38546      6.40977         0.041699     -0.003854     -0.069368
O	      4.09067      8.41414      6.43706        -0.043248     -0.007362     -0.132887
O	      4.04183      6.38639      8.44760         0.087694      0.033300      0.012490
O	      6.11628      8.59684      8.35319        -0.035084     -0.101172      0.104710
O	      6.24883      6.28095     10.60749         0.036965      0.034856     -0.003810
O	      8.21506      8.44296     10.55669        -0.017814      0.029340     -0.024396
