# total energy = -210.56823836 eV
 
CRYSTAL
PRIMVEC
0.018744 6.232670 6.123347 
6.383202 0.021455 6.120690 
4.275270 4.173178 -0.005819 
PRIMCOORD
36 1
Li	      4.37074     10.23188      6.07196         0.094713     -0.029458      0.064684
Li	      2.25104      8.30414      6.06326         0.039223     -0.091609     -0.020759
Li	      4.31655      8.30448      8.09609        -0.013847      0.009183     -0.004781
Li	      2.21113      2.07618      4.09660         0.043109      0.097521     -0.021872
Li	      4.24498      4.08562      4.12960        -0.089200     -0.083625      0.007823
Li	      4.24819      2.15342      6.10282         0.002212      0.035064     -0.074543
Li	      4.28005      8.31198      4.17290         0.011036     -0.079941      0.024064
Li	      2.17504      6.27508      4.14152         0.108092      0.037112      0.016151
Li	      4.23966      6.31614      5.98791        -0.039668      0.023228      0.015008
V	      2.22538      4.13694      1.99313        -0.007989      0.020218      0.190660
V	      4.29667      6.23876      2.06974        -0.007407      0.047961      0.173754
V	      6.39701      6.31542      8.22045         0.118034     -0.022448     -0.544647
Fe	      6.43676     10.38274      8.14887        -0.223500     -0.005815     -0.287665
Fe	      8.52262      4.21172      4.16893        -0.198742     -0.032860      0.717167
Cu	      6.28886      4.24264      6.06643        -0.100073      0.164041      0.146083
Cu	      2.10589      4.17563      6.04893         0.065526     -0.102650     -0.042266
Cu	      8.47482      8.36909      8.15195         0.069404      0.031236      0.041518
Ni	      6.35379      2.10853      4.22048        -0.033642     -0.067159      0.073743
O	      4.01088      4.19173      6.19745         0.194585      0.005355      0.011141
O	      4.51465      8.30556      6.06691        -0.287532     -0.006012      0.025089
O	      2.02504      2.03339      1.98020        -0.033954     -0.045920      0.019710
O	      4.28018      4.28653      2.00347         0.047865      0.035559     -0.064727
O	      4.28677      1.88126      4.16379        -0.033339      1.265954     -0.050201
O	      6.32279      4.17758      4.09288         0.462951      0.163321     -0.192996
O	      6.33279      2.27182      6.26111        -0.001889     -0.085251      0.058902
O	      8.65362      4.13400      6.20520         0.102782     -0.087614      0.182630
O	      2.20656      4.07566      3.77366        -0.012246     -0.008120     -0.049381
O	      4.21287      6.33531      3.83705         0.049017     -0.039614     -0.137553
O	      6.35496      6.29926      6.30251         0.012549     -0.060183     -0.013287
O	      6.53265      4.24790      8.05605         0.260016      0.073278      0.056358
O	      8.50099      6.19707      8.14231        -0.046763     -0.042377     -0.047880
O	      2.15639      6.11426      6.20827         0.016425      0.183791      0.006001
O	      4.31323      6.25705      8.27550         0.249957     -0.072157     -0.431085
O	      6.33048      8.30459      8.31504        -0.227510     -0.025686      0.036318
O	      6.49735      6.24526     10.04845        -0.543456     -0.116922      0.163329
O	      8.50053      8.52090     10.15908        -0.046739     -1.087404     -0.046489
