# total energy = -91.39013912 eV
 
CRYSTAL
PRIMVEC
4.093563 0.000140 0.000318 
-2.048445 4.414467 -6.274855 
-2.046737 4.271147 1.996593 
PRIMCOORD
16 1
Li	      2.04646      2.21328     -0.23169         0.001474      0.008844     -0.035284
Li	     -0.00039      4.47975     -0.20137        -0.003589      0.024063     -0.044321
Li	     -0.00089      2.13431     -2.06540         0.000079      0.024144      0.003537
Li	      2.04472      4.12173     -1.94289         0.000760     -0.008152     -0.009115
Mn	     -2.04653      4.31232      1.88830        -0.001083      0.149120     -0.134622
Mn	     -0.00241      4.41265     -4.12853         0.000364     -0.022368      0.151478
Ni	     -0.00242      6.47129     -2.08725        -0.000917      0.076460     -0.013506
Ni	     -2.04846      6.55396     -4.28590        -0.001337     -0.072005      0.038045
O	     -2.04954      6.75470     -2.19784         0.006785     -0.015458      0.063785
O	      2.04731      4.19354      0.07817        -0.003883     -0.014602      0.165925
O	     -0.00194      6.48518     -4.09692         0.002217      0.081078     -0.122755
O	     -0.00130      4.35349     -6.14970        -0.003017      0.094543     -0.066734
O	     -2.04927      4.42069     -4.32843         0.002115     -0.013716     -0.089386
O	      2.04516      2.19405     -2.21074         0.002215     -0.012033      0.236260
O	     -0.00373      4.47818     -2.26497         0.007339     -0.130851     -0.004144
O	      0.00119      1.89916     -0.00457        -0.009523     -0.169069     -0.139163
