# total energy = -137.35817678 eV
 
CRYSTAL
PRIMVEC
2.036935 2.220895 0.031547 
-2.006607 -0.000082 2.005318 
16.314210 16.318082 0.020424 
PRIMCOORD
24 1
Li	      0.94969      1.29195      0.94804         0.016559     -0.024368      0.018313
Li	      3.05212     -1.03184      5.06205         0.014887     -0.002079      0.011852
Li	      5.15541     -5.50237      7.16185        -0.013485      0.005220     -0.013080
Li	      9.26527     -7.82472      9.26766        -0.014299      0.023802     -0.017280
Li	      9.24423    -12.08256     13.25706        -0.005203     -0.000286     -0.005688
Li	     13.24110    -14.19192     15.25058         0.007030      0.000602      0.005221
Mn	      0.98046     -1.00729      2.98530        -0.009399      0.006404     -0.006799
Mn	      5.10768     -3.26681      5.10870         0.000167      0.001485      0.001012
Mn	      7.23026     -5.52415      9.23669         0.006112     -0.007235      0.007042
Ni	      9.25894     -9.92132     11.26462        -0.019115     -0.004682      0.002303
Ni	     13.26493    -12.02709     13.26548         0.006081     -0.000015     -0.001355
Ni	     15.23343    -16.35379     15.23724         0.009108      0.003636      0.006212
O	      2.93024     -1.07256      2.93121         0.012081      0.014020      0.001892
O	      5.05095     -3.32644      7.05757         0.017856      0.000739      0.023499
O	      7.14280     -7.79204      9.14815        -0.012490      0.010848     -0.003923
O	     11.16699     -9.88576     11.16852         0.142406     -0.039962      0.129357
O	     13.16693    -12.00056     15.17404         0.134147     -0.022421      0.137185
O	     15.13800    -16.33589     17.14845         0.138911     -0.015923      0.136683
O	      1.03874     -0.96000      1.03582         0.002566     -0.010926      0.013044
O	      3.15795     -3.20641      5.16531        -0.018431     -0.002922     -0.024336
O	      7.28575     -5.45890      7.28685        -0.004344     -0.014362     -0.013032
O	      9.35397     -9.93957      9.35388        -0.130155      0.013399     -0.137916
O	     11.35700    -12.05350     13.36192        -0.142505      0.021448     -0.132014
O	     15.36177    -14.16848     15.36527        -0.138484      0.043578     -0.138191
