# total energy = -211.99410273 eV
 
CRYSTAL
PRIMVEC
-0.038638 6.033218 6.598707 
6.116560 -0.038713 6.599251 
4.108978 4.052853 -0.057129 
PRIMCOORD
36 1
Li	      6.05929      5.94022     13.03059        -0.033334      0.023507     -0.034441
Li	      2.02761      6.01396      8.79753        -0.012904      0.032326      0.042357
Li	      8.16338     10.05218     10.96145        -0.017649     -0.005703      0.075738
Li	      6.08705      7.96676     10.82789         0.048381      0.029463      0.014402
Li	      6.05451      1.99060      8.76294         0.032936     -0.091993     -0.081701
Li	      8.13832      6.02284      6.65341        -0.000544     -0.003098     -0.006175
Li	      6.08591      4.03187      6.67762        -0.011153     -0.025243     -0.023577
Li	      2.06240      4.04591      6.66057         0.009057     -0.019081      0.026977
Li	      6.11580      5.99582      8.82633        -0.036573      0.010938     -0.050738
V	      7.97545      2.09431      6.56040        -0.241740      0.211017      0.057242
V	      4.20113      3.98183      4.37347        -0.173860      0.320515      0.202049
V	      4.19224      6.06267      6.61435         0.238383     -0.393837      0.017147
Fe	      4.18812      8.03818      8.71662        -0.136688      0.255949      0.311945
Fe	      8.04151      5.96489     10.94730         0.059316      0.203430      0.007015
Cu	      8.07311      4.04667      8.76624         0.069296      0.025551     -0.109965
Cu	      2.09533      1.99719      4.40711        -0.129465      0.278240      0.056071
Cu	      6.06996      3.98972     10.88510        -0.185718      0.066756     -0.025387
Cu	      8.12834      8.03533      8.74135        -0.036117      0.052383     -0.071271
O	      8.14958      6.04756      8.91533        -0.028270      0.038869      0.044533
O	      2.13070      2.06630      1.88264        -0.075992     -0.087606     -0.038115
O	      4.01081      4.04139      2.43944         0.102639     -0.107459     -0.353603
O	      4.07288      2.05165      4.24944         0.222217     -0.350502     -0.113332
O	      6.06700      4.12396      4.29383         0.051960     -0.168802     -0.232309
O	      6.23331      1.93857      6.64502         0.156430      0.002808      0.005004
O	      8.15217      3.87316      6.47097         0.011072     -0.105423     -0.035239
O	      2.13964      4.01631      4.48197         0.197264     -0.219606      0.180846
O	      4.08784      6.08898      4.50360         0.139916     -0.093363      0.048319
O	      4.10208      4.06615      6.29044        -0.202664      0.014958      0.207850
O	      5.97641      6.04734      6.61656        -0.068295      0.025845      0.039651
O	      6.05184      3.96529      8.83044        -0.037818      0.032039     -0.064856
O	      2.16377      6.15419      6.48624        -0.011254     -0.049681     -0.079878
O	      4.03507      8.03930      6.69070        -0.008591      0.069076      0.067780
O	      4.03189      5.99214      8.58850         0.034008      0.026446     -0.109847
O	      6.10437      8.06790      8.74818         0.150354     -0.004509      0.042286
O	      6.11745      5.90938     11.01275        -0.085036      0.037093     -0.063524
O	      8.08683      7.96296     11.25947         0.010436     -0.031302      0.046747
