# total energy = -212.69705263 eV
 
CRYSTAL
PRIMVEC
0.035000 6.182408 6.310095 
6.221897 0.043655 6.301524 
4.167401 4.135542 0.009733 
PRIMCOORD
36 1
Li	      0.11048      6.08935      6.26129        -0.043146      0.120598      0.009444
Li	      2.10003      6.20791      8.37715        -0.070908      0.010290      0.012072
Li	      8.25371     10.21915     10.48357         0.051716     -0.111029     -0.022913
Li	      6.36178      8.23581     10.42829        -0.015425      0.028788     -0.045124
Li	      0.11162      2.19214      2.13842         0.137158     -0.062525      0.003926
Li	      2.11823      4.08209      2.17310         0.058691     -0.075627     -0.049812
Li	      6.20446      4.20144      6.30776         0.011283      0.005242      0.040265
Li	     10.33155      8.33780     10.59242        -0.068806      0.081066     -0.156973
Li	      8.29724      8.32694      8.51204        -0.053297      0.153560     -0.030594
V	      4.26889      4.13776      4.16517         0.176625      0.048223      0.325035
V	      8.50412      6.10736      6.37524        -0.020340      0.009991      0.014948
V	      6.22895      6.09743      8.44964        -0.145352      0.012824     -0.220945
Fe	      4.16431      8.24575      8.38763        -0.201029      0.053691     -0.618768
Fe	      8.32052      6.29526     10.51396         0.211756      0.136857      0.201811
Ni	      8.30626      2.14023      6.29261        -0.298063      0.078699      0.128838
Ni	      6.22431      8.30884      6.32694         0.167147     -0.005013      0.063479
Ni	      4.15101      6.20965      6.31878         0.166768     -0.309935      0.033539
Ni	      2.03935      2.12770      4.18285        -0.042144     -0.002162     -0.020311
O	      2.19205      2.08736      2.11864        -0.728017     -0.035212     -0.195237
O	      4.18375      3.99922      2.25727         0.026049      0.661075     -0.110410
O	      4.10539      2.15774      4.40870         0.120412     -0.141166     -0.371579
O	      6.08283      4.19065      4.22418         0.064571     -0.101467      0.109984
O	      6.09052      2.10570      6.36121        -0.066964     -0.003285      0.017419
O	      8.32333      4.33845      6.26850         0.038807      0.099801      0.073781
O	      2.25251      4.22736      4.23208         0.081648     -0.638089     -0.118762
O	      4.12284      6.13816      4.21036         0.574549     -0.000297     -0.209680
O	      4.13892      4.03865      6.22586         0.082920     -0.069755     -0.007447
O	      6.32450      6.24288      6.34308        -0.045014     -0.071096      0.088844
O	      6.24435      4.32260      8.38035         0.019418     -0.035016     -0.028103
O	      8.26062      6.27171      8.25216         0.036873     -0.053728     -0.096591
O	      2.12319      6.21794      6.19019        -0.163376     -0.093274      0.721695
O	      4.16345      8.23407      6.30374         0.057991      0.234731      0.581394
O	      4.24840      6.26118      8.40989        -0.056143     -0.602871      0.156588
O	      6.12582      8.13970      8.39510         0.802089     -0.210884      0.004694
O	      6.40810      6.21628     10.37393        -0.999421     -0.167809     -0.126251
O	      8.30367      8.18921     10.56728         0.130974      1.054804     -0.158256
