# total energy = -217.58475508 eV
 
CRYSTAL
PRIMVEC
-0.004462 6.271318 6.191900 
6.256729 -0.009383 6.197032 
4.148095 4.161219 0.016398 
PRIMCOORD
36 1
Li	      6.23013      0.03380      6.15393         0.046329     -0.046796      0.008989
Li	      4.17066      8.33720      8.27966         0.017044      0.038125      0.001917
Li	      6.21314      2.05106      4.15502         0.023116     -0.023725     -0.016416
Li	      6.26975      2.06771      8.21184         0.007997     -0.033692      0.022729
Li	      2.10975      2.13438      4.14551        -0.019962      0.046146     -0.007682
Li	      2.03588      6.21743      4.12949         0.004798      0.028914      0.001402
Li	      6.19635      8.23585      6.28165        -0.111659      0.023006      0.016296
Li	      4.25670      6.26599      6.23122         0.061125      0.024471     -0.018219
Li	      6.22159      6.30460      8.26956        -0.033374     -0.027748      0.031615
V	      0.03897      4.21260      4.19344        -0.018760     -0.544005      0.028949
V	      2.09167      6.24721      8.14012        -0.216083      0.040163     -0.150546
V	      4.11545      4.28504      4.11356        -0.199484      0.100454     -0.380868
Fe	      4.16882      2.14822      6.20339         0.070184     -0.447185     -0.103604
Fe	      6.27509      4.21430      6.19583         0.154549      0.075988      0.180240
Fe	      8.25026      8.24506      8.34792         0.008321      0.068059      0.257485
Co	      8.33750      4.14063      8.23571         0.066191     -0.053632      0.004979
Cu	      8.29018      8.27924     12.35872        -0.091077     -0.038256     -0.075634
Cu	      4.20987      0.08837      4.11574        -0.024230     -0.127253     -0.083655
O	      2.12277      2.04430      1.92063         0.006898      0.173251      0.126205
O	      4.22574      4.15786      2.18631         0.069181      0.018351     -0.116666
O	      4.14837      2.36480      4.26306         0.017024      0.380480     -0.937185
O	      6.17615      4.24893      4.07263         0.164905      0.023609      0.060551
O	      6.18744      2.22463      6.15628         0.721623     -0.068847     -0.009818
O	      8.30177      4.31642      6.16656         0.091513     -0.631955     -0.001450
O	      2.06962      4.19281      4.05035         0.055361      0.047194     -0.073660
O	      4.14980      6.13565      4.17508         0.012578     -0.096078      0.004174
O	      4.21656      4.15828      6.21862        -0.009254      0.791805      0.140101
O	      6.36127      6.17939      6.23478        -1.049149     -0.045956     -0.022155
O	      6.19006      4.11691      8.36451        -0.132855     -0.030788     -0.148120
O	      8.30801      6.24635      8.14881         0.110676      0.129527      1.163061
O	      2.03157      6.15728      6.37353         0.009780     -0.081306      0.089556
O	      4.14700      8.25679      6.00364         0.140700     -0.076788      0.114514
O	      4.07095      6.19399      8.34760        -0.008362     -0.019772     -0.012686
O	      6.29057      8.43208      8.33840         0.074307     -0.066322     -0.050321
O	      6.18672      6.07773     10.32106         0.011714      0.547849     -0.035662
O	      8.42684      8.19144     10.34781        -0.031666     -0.097293     -0.008419
