# total energy = -215.23594233 eV
 
CRYSTAL
PRIMVEC
-0.021377 6.303587 6.157214 
6.399635 -0.003459 6.139178 
4.262419 4.186087 0.002311 
PRIMCOORD
36 1
Li	      4.31785      2.10200      2.11732        -0.129904     -0.100853     -0.021378
Li	      4.21853      0.09586      4.05807        -0.029124      0.044806      0.094944
Li	      6.20628      2.14981      4.08764        -0.081554     -0.006984      0.118318
Li	      2.25393      4.23341      2.05645         0.022294     -0.077590     -0.068090
Li	      4.36520      4.13458      4.22774         0.042256     -0.100126      0.078622
Li	      4.26274      2.28693      6.13326         0.007214     -0.055004     -0.078861
Li	      6.16961      4.17374      6.06643         0.052868     -0.060715     -0.060002
Li	      2.36218      4.20253      6.14690        -0.015347      0.011313     -0.046866
Li	      4.23706      6.11943      6.16378        -0.032262      0.013259      0.040084
V	      8.44500      2.24003      6.20323         1.027986      0.120383     -0.703538
V	      4.26691      8.31934      4.11604        -0.284703      0.426871      0.611218
V	      6.27937      6.35333      8.05322        -0.124394      0.110850      0.037448
Fe	      6.31219     10.38952      8.22845         0.475225      0.273859     -0.059587
Fe	      2.33092      2.06810      4.14614        -0.012286      0.048804     -0.194211
Fe	      2.12974      6.23681      4.09739        -0.130533      0.090147      0.296766
Cu	     10.52456      6.22146      8.15681         0.194782     -0.137075     -0.234458
Ni	      0.01175      6.30064      6.14439        -0.226713      0.000031     -0.190062
Ni	      4.19389      4.22031      8.12561        -0.004767      0.035603      0.257448
O	      2.29654      2.01013      1.90668        -0.176958     -0.138559      1.043094
O	      4.39181      4.18095      1.98407        -0.335032      0.475767      0.265418
O	      4.17253      2.09869      4.15603         0.159833      0.063628     -0.032878
O	      6.40194      4.31061      4.00914        -0.055274     -0.155698      0.049650
O	      6.64369      2.09098      6.10788        -1.130484     -0.039802      0.582594
O	      8.60095      3.99424      6.16647        -0.105133      0.399581      0.027183
O	      1.95736      4.13977      4.10505         0.210198      0.057852     -0.026926
O	      4.19672      6.39913      4.11993         0.127900     -0.429075     -0.435603
O	      4.27021      4.18547      6.17582        -0.028931      0.078511     -0.276578
O	      6.37893      6.27629      6.25327         0.029427      0.019892      0.102808
O	      6.28514      4.35802      8.36123         0.098500     -0.494171     -0.222200
O	      8.32539      6.32146      8.27714         0.083098     -0.194585     -0.092067
O	      2.09447      6.40626      6.14215         0.144083     -0.240667      0.036709
O	      4.08993      8.43824      5.98781         0.281922     -0.149881     -0.253329
O	      4.33306      6.26554      8.21431         0.045155      0.212582      0.057979
O	      6.36627      8.35056      8.21451        -0.123723     -0.015592      0.018459
O	      6.46417      6.21271     10.19426         0.046919      0.043251     -0.247411
O	      8.60351      8.28574     10.37214        -0.022533     -0.130614     -0.474699
