# total energy = -215.88867295 eV
 
CRYSTAL
PRIMVEC
0.009184 6.316593 6.513964 
6.097803 0.024062 6.497688 
4.071164 4.207178 0.009175 
PRIMCOORD
36 1
Li	      2.00458      2.10290      0.09067        -0.021606     -0.006062      0.056989
Li	      2.02390      6.32852      8.64617        -0.010008      0.000094     -0.027028
Li	      4.14341      8.50552      8.58290         0.018991      0.031588     -0.017514
Li	      4.10044      0.05775      4.40679        -0.025642      0.013398      0.009727
Li	      6.08133      8.33218     10.91139         0.005921     -0.054592     -0.019706
Li	      8.11932      4.20775      8.59390         0.016488     -0.008541     -0.014049
Li	      1.97033      6.31425      4.50658        -0.035452      0.022387      0.039839
Li	      6.05653      8.44419      6.54134         0.005020      0.022972      0.015257
Li	      6.10320      6.27249      8.79694         0.011587      0.032185      0.020952
V	      2.06776      2.08111      4.17139         0.113991     -0.116642      0.047917
V	      4.07019      4.24447      4.22151         0.120237     -0.147971      0.122537
V	      8.00752      8.43848      8.88979        -0.013160      0.065126     -0.155993
Fe	      4.11079      2.11919      6.48437        -0.143218      0.128809     -0.064201
Fe	      0.05687      4.31548      4.39675        -0.062187     -0.189055      0.067262
Fe	      3.94099      6.34465      6.54629         0.169084     -0.108064      0.049051
Cu	      0.05780      6.30947      6.51862        -0.034734      0.048197      0.014239
Cu	      6.11506      2.12005      8.60233         0.094364     -0.017985      0.053460
Cu	      6.18900      4.22196      6.47285         0.028571      0.031115      0.005226
O	      2.06707      2.12878      2.36819         0.103787      0.040719     -0.201780
O	      4.03813      4.34275      2.31486        -0.046840     -0.101906     -0.094965
O	      4.01489      2.17135      4.37059         0.014456      0.051604     -0.042498
O	      6.04810      4.34961      4.22740         0.007257      0.039432     -0.114866
O	      6.09154      2.25966      6.41999         0.196234     -0.062676     -0.103231
O	      8.21845      4.35468      6.54998        -0.044229     -0.247914     -0.002973
O	      2.06014      4.09717      4.37243        -0.057417      0.060904     -0.010009
O	      4.12851      6.34403      4.51604        -0.106319      0.038094      0.090332
O	      4.11354      4.22383      6.39762        -0.083055     -0.044609     -0.023777
O	      6.14513      6.22293      6.31686        -0.034598      0.095253      0.025466
O	      5.99096      4.12919      8.85469         0.056065      0.133907      0.052979
O	      8.14162      6.57280      8.51123        -0.133914     -0.074454      0.044082
O	      2.01954      6.31001      6.54858         0.013953      0.000192     -0.005118
O	      4.04396      8.29869      6.46710         0.002333      0.101642      0.065023
O	      4.11492      6.04067      8.52422         0.056446      0.025925      0.080581
O	      6.25592      8.39134      8.69249        -0.132173     -0.047661     -0.044757
O	      6.11011      6.21510     10.88299        -0.017639      0.244683     -0.113786
O	      8.11866      8.42261     10.65241        -0.032598     -0.000092      0.195332
