# total energy = -216.65546020 eV
 
CRYSTAL
PRIMVEC
-0.014104 6.274823 6.152234 
6.311180 -0.023103 6.161572 
4.188698 4.170472 0.003395 
PRIMCOORD
36 1
Li	      2.08532      8.35466      6.15691        -0.005867      0.008867      0.021479
Li	      6.29847      8.32521     10.27826        -0.000060      0.008817     -0.018745
Li	      6.31980      2.09079      8.21796         0.014630      0.001446      0.055942
Li	      8.38400      4.14015      8.13384         0.015251     -0.032763     -0.003495
Li	      8.41184      6.18697      6.17866         0.013195     -0.034213      0.036312
Li	      4.15300      8.34572      4.15185        -0.042061      0.003004     -0.008016
Li	      2.10226      6.29604      4.16585         0.011426      0.033387     -0.039886
Li	      2.04750      4.24038      6.16093        -0.027163      0.058108     -0.041754
Li	      4.12480      6.29957      6.11723        -0.050120      0.020311      0.004979
V	      6.32914      0.07931      6.08562         0.010712      0.026318     -0.039596
V	      4.11237      4.21976      4.17691         0.014792      0.057055      0.079520
V	      8.38447      8.26955      8.23776         0.012724      0.209835     -0.166484
Fe	      4.14193      8.35438      8.14386         0.060749      0.014899      0.054617
Fe	      6.25766      6.24809      4.17935         0.026165      0.079556      0.040586
Fe	      6.35398      6.22228      8.17137        -0.146066     -0.032974     -0.009862
Ni	      2.08512      6.26676      8.14420         0.044610     -0.006310     -0.003569
Ni	      8.41310      4.16289      4.13746        -0.058339     -0.010860     -0.005609
Ni	      6.37485      4.07869      6.18544        -0.032953     -0.101050      0.027183
O	      2.17983      2.04018      2.16397        -0.051617      0.102598     -0.031939
O	      4.22891      4.11789      2.10659        -0.119484      0.042751     -0.008018
O	      4.16164      2.14857      4.05655         0.057258      0.059560      0.020318
O	      6.18348      4.17842      4.12492         0.008162     -0.064111     -0.048478
O	      6.30148      1.91579      6.17723        -0.000740     -0.054769      0.005750
O	      8.44703      4.13241      6.12020         0.167142     -0.024377      0.142813
O	      2.30064      4.11015      4.12381        -0.044304      0.011817      0.025554
O	      4.27279      6.14258      4.12465        -0.075852     -0.064006      0.013205
O	      4.24136      4.17330      6.19312        -0.081457      0.010582     -0.029147
O	      6.30129      6.19545      6.16666         0.007287      0.028530     -0.010813
O	      6.20280      4.21622      8.19714         0.053412     -0.088061      0.142896
O	      8.31817      6.36222      8.22141         0.045773     -0.141499      0.021598
O	      1.95242      6.29606      6.14149        -0.028425      0.027165     -0.136876
O	      4.16778      8.54496      6.21855         0.005475      0.010640     -0.123949
O	      4.20840      6.27209      8.21402         0.216077      0.020213     -0.143616
O	      6.32835      8.29572      8.18619        -0.063542     -0.169834     -0.003132
O	      6.26627      6.24390     10.27315         0.087138      0.025029      0.047063
O	      8.38193      8.39238     10.03044        -0.043930     -0.035659      0.133169
