# total energy = -203.93700761 eV
 
CRYSTAL
PRIMVEC
0.035153 6.086601 6.450336 
6.174831 0.071781 6.415714 
4.149909 4.066817 0.013251 
PRIMCOORD
36 1
Li	     10.25509      4.17386      6.39629        -0.019396      0.028816     -0.063147
Li	      6.22999      8.15327     10.70987        -0.040934     -0.036452     -0.101699
Li	      2.08334      4.07800      2.34210         0.033806      0.011224      0.030786
Li	      4.09804      4.07837      4.41700         0.016346     -0.016888      0.034478
Li	      4.22523      2.04756      6.48791        -0.007273     -0.017918     -0.037748
Li	      6.14297      4.11941      6.45858        -0.004956      0.048972     -0.033395
Li	      2.09208      6.04029      4.28770        -0.015485      0.002373     -0.015455
Li	      2.14955      4.09455      6.37766         0.016260     -0.015126      0.074705
Li	      4.14508      4.06515      8.52343        -0.006139      0.000350      0.054071
Ti	      8.09962      2.18401      6.29046        -0.209676      0.136737     -0.047798
Fe	      4.12632      2.17161      2.09151         0.061490     -0.094898      0.109409
Fe	      6.32549      6.07763      8.62161        -0.088009      0.257256      0.121138
Co	      4.14334      6.13474     10.66296        -0.021685      0.100048      0.078910
Co	      4.19038      6.04419      6.49182         0.231848     -0.253458      0.143766
Cu	     10.24579      6.18409      8.54316        -0.014236      0.110081     -0.158397
Cu	      6.25197      6.10510      4.36715         0.151655     -0.132912      0.109153
Ni	      2.08366      6.10679      8.55668         0.022533     -0.178007     -0.012364
Ni	      4.22064      8.10614      4.35171        -0.001958      0.089554     -0.007836
O	      4.15783      4.25221      6.48022        -0.014868      0.177457      0.031862
O	      2.05748      2.08051      1.90282        -0.058613      0.143199     -0.210900
O	      4.18348      4.10632      2.10999        -0.165472      0.104470     -0.049468
O	      3.97303      1.99571      4.13784         0.018947     -0.138933      0.069648
O	      6.34196      4.23408      4.18533        -0.016471     -0.040700      0.150373
O	      6.25597      2.08142      6.30032         0.324504      0.041809      0.098765
O	      8.28190      4.08901      6.15539        -0.037605     -0.204841     -0.051686
O	      2.08197      3.88452      4.36584         0.081673      0.176263      0.052610
O	      4.37539      6.08209      4.60256        -0.136586     -0.131358      0.058979
O	      6.06546      6.11572      6.72506        -0.222074      0.001244     -0.480313
O	      6.20308      4.13590      8.68434         0.007785     -0.458299     -0.075011
O	      8.25783      6.12956      8.63126         0.203941      0.002601     -0.039355
O	      2.28179      6.16945      6.40885         0.027400      0.036925     -0.124098
O	      4.11849      8.02263      6.51327        -0.091174      0.013088     -0.080580
O	      4.12005      6.18111      8.62597         0.080375     -0.039831     -0.178485
O	      6.12506      8.10708      8.65283         0.005861      0.167440     -0.034875
O	      6.08727      6.12703     10.56643        -0.012245      0.079145      0.386312
O	      8.32649      8.26104     10.79488        -0.099568      0.030569      0.197646
