# total energy = -202.53181957 eV
 
CRYSTAL
PRIMVEC
0.029185 6.170406 6.261453 
6.255378 0.002621 6.288199 
4.168046 4.129084 0.003974 
PRIMCOORD
36 1
Li	      2.20872      8.18390      6.39361        -0.076274      0.001932     -0.011484
Li	      6.31275      4.16593      2.19726         0.057537     -0.022941      0.017740
Li	      4.15046      8.15309      8.38148        -0.026884     -0.041531      0.087963
Li	      4.18478      6.20740     10.36065         0.063714      0.015060     -0.055420
Li	      6.17219      2.12063      4.07979        -0.060063     -0.003661      0.061863
Li	      0.12697      2.04532      2.12474        -0.111189     -0.004175     -0.110222
Li	      2.10728      2.00542      4.07131         0.090591      0.025279      0.110997
Li	      4.11739      6.29333      6.30010         0.045071     -0.021530      0.068760
Li	      6.22912      6.24874      8.39679         0.030799     -0.019551     -0.101900
Ti	      0.10405      6.16572      6.30745         0.138157      0.621959     -0.156913
Fe	      6.25580      4.12552      6.23522         0.082088      0.136280      0.400408
Fe	      8.37055      6.21257     10.37080        -0.133554      0.039463     -0.362411
Co	      8.33324      6.18247      6.28989         0.080154     -0.135128      0.498329
Co	      4.11620      4.29643      8.39648        -0.076646     -1.189080     -0.067181
Cu	      2.07930      4.03887      2.08140         0.047203      0.218346     -0.221404
Cu	      4.20880      4.12073      4.14439        -0.035993     -0.205567      0.170862
Cu	      4.18170      8.20078      4.14202        -0.024162      0.051940     -0.084571
Ni	      6.25263      8.20641      6.34700         0.098417     -0.306688      0.077686
O	      4.20739      6.09565      8.32930        -0.179027     -0.172832      0.158674
O	      6.34581      8.25554      8.33782         0.854709      0.253043      0.187092
O	      2.11148      2.11414      2.07102         0.023571      0.048246      0.052910
O	      4.12218      4.08439      1.91598         0.057421     -0.099110      0.201266
O	      4.17159      2.15451      4.43627        -0.028949      0.295537     -0.502469
O	      6.17963      4.13543      4.32341        -0.283426      0.005250     -0.342133
O	      6.09397      2.02381      6.28886         0.509727     -0.244714     -0.074890
O	      8.32089      4.23016      6.31218         0.110895     -0.103525     -0.068434
O	      2.11637      4.15729      4.12698         0.324887     -0.056449      0.046057
O	      4.09916      6.13326      4.21500         0.110811     -0.221983     -0.060777
O	      4.20185      3.96474      6.41920         0.023067      0.503954      0.446213
O	      6.46372      6.14989      6.32289        -0.492674     -0.184215     -0.061325
O	      6.27360      4.10358      8.36241        -0.455122     -0.048296      0.036619
O	      8.36180      6.16839      8.31360        -0.052893      0.160111      0.273389
O	      2.00564      6.18285      6.18068        -0.334804      0.061911      0.035751
O	      4.20979      8.31692      6.15121        -0.108126      0.115061      0.032012
O	      6.34162      6.11956     10.54138        -0.056435      0.006524      0.090907
O	      8.44296      8.17524     10.37978        -0.212598      0.521081     -0.773965
