# total energy = -201.88789270 eV
 
CRYSTAL
PRIMVEC
-0.002106 6.215459 6.128551 
6.274577 -0.019632 6.146075 
4.164705 4.136954 0.005343 
PRIMCOORD
36 1
Li	      2.03511      0.07997      2.07224         0.044706     -0.037582      0.006353
Li	      4.13718      2.08299      2.08757         0.058812     -0.065428      0.008061
Li	      2.12585      4.09158      2.19454         0.014700      0.069967      0.021446
Li	      2.09443      2.04791      3.99393         0.018601      0.061796      0.104019
Li	      4.07825      4.16622      4.01562        -0.018857      0.014510      0.003764
Li	      6.28260      4.10625      6.09077         0.048502      0.113858     -0.027339
Li	      4.16799      8.21035      4.13130         0.025813      0.040175     -0.002137
Li	      2.16829      6.17625      4.09463        -0.056754     -0.028386     -0.009235
Li	      8.33282      8.24874      8.22892         0.026292      0.062768     -0.051333
Ti	      6.29286      6.02248      8.23650        -0.280008     -0.279908      0.113861
Fe	      4.23842      2.10720      6.09676        -0.392558     -0.152263      0.094925
Fe	      2.05940      4.16463      6.12445         0.043367     -0.049619      0.063538
Co	      4.14207      6.20655     10.18146        -0.082899      0.042867     -0.031536
Co	      4.14412      6.18453      5.99301         0.131463     -0.128174      0.874142
Ni	      4.18037      4.13866      0.05467        -0.245169     -0.171554     -0.178493
Ni	      8.34439      2.07272      6.17332         0.167572      0.201693     -0.125484
Ni	      6.27429      8.33365     10.15553        -0.025492      0.000391     -0.214800
Ni	      4.17964      6.24334      2.11227        -0.273275      0.065057      0.000817
O	      1.96605      2.11988      1.99520         0.166371     -0.045982     -0.103765
O	      4.15169      4.28430      2.04264        -0.001634     -0.122045      0.107415
O	      4.21087      1.94562      4.11368         0.074791     -0.006051     -0.083536
O	      6.50716      4.11138      4.04900        -0.285935     -0.135096      0.047197
O	      6.21683      2.05181      6.14086         0.260607      0.188793     -0.230223
O	      8.40000      4.16720      5.93531        -0.005789     -0.033958      0.389406
O	      2.05457      4.14223      4.31920        -0.032560     -0.029023     -0.296306
O	      4.18259      6.19493      4.18888        -0.003773      0.002938      0.193870
O	      4.08445      4.10217      6.11337         0.045551     -0.054633      0.002507
O	      6.26150      6.20670      6.23791        -0.124958     -0.029838     -0.174018
O	      6.28454      4.15542      8.21010         0.004481      0.186579      0.026286
O	      8.28559      6.16278      8.15097         0.012566      0.063749     -0.098778
O	      2.13262      6.18971      6.15156         0.339561      0.180300     -0.088683
O	      4.20672      8.23890      6.18278        -0.107000      0.031349      0.018350
O	      4.31979      6.16022      8.23643         0.133586      0.020171     -0.866695
O	      6.26307      8.15160      8.05495         0.024253      0.015933      0.366360
O	      6.13733      6.25040     10.16991         0.197407      0.072688     -0.031876
O	      8.29631      8.42612     10.28579         0.097660     -0.066043      0.171922
