# total energy = -205.70174333 eV
 
CRYSTAL
PRIMVEC
0.024303 6.169473 6.231938 
6.217542 0.023809 6.232609 
4.164241 4.132774 -0.003689 
PRIMCOORD
36 1
Li	      2.09658      6.20399      8.24703        -0.051857     -0.019826      0.155456
Li	      4.19061      6.17311     10.36577        -0.087660      0.020703     -0.028450
Li	      8.27748      4.14683      8.30807         0.024143     -0.081544      0.157382
Li	      6.22181      6.17662      4.27959        -0.051777     -0.050742     -0.095182
Li	      6.22517      4.26643      6.25256        -0.017776     -0.028949     -0.135373
Li	      0.10947      4.14149      4.14187         0.092598     -0.030033      0.006945
Li	      6.24341      8.14810      6.22329        -0.036888      0.040256     -0.119785
Li	      4.35247      6.20881      6.26186        -0.082465      0.027078     -0.075186
Li	      6.22592      6.13313      8.15054        -0.041684      0.009787      0.101809
Ti	      6.19430      8.21642     10.28793        -0.277050      0.795124     -0.364533
Fe	      2.11228      2.11432      0.03860         0.092332     -0.115412     -0.100881
Fe	      4.26543      4.24281      8.20238        -0.108734      0.036616      0.317977
Co	      4.16273      4.13331      0.02158        -0.031895     -0.037405      0.023927
Co	      4.18060      6.18407      2.08030         0.253868     -0.024389      0.015355
Co	      4.11579      4.16529      4.16019         0.713202     -0.448212     -0.095868
Ni	      4.13591      8.17482      8.28241        -0.016432      0.101839      0.114534
Ni	      2.11688      6.17972      4.15622         0.087022     -0.423211      0.091490
Ni	      8.21962      6.19258      6.27458         0.087674     -0.254819     -0.212530
O	      6.28503      6.17807      6.22429         0.254648     -0.021034      0.185647
O	      2.00088      2.06377      1.94928        -0.256389      0.000449      0.065117
O	      4.17097      4.19803      1.99469        -0.002951      0.022954     -0.051789
O	      4.19053      2.10589      4.11964         0.062095      0.240441      0.311334
O	      5.97970      4.02243      4.19203         0.457050     -0.415126      0.050829
O	      6.19296      1.98493      6.29632        -0.203612     -0.099098     -0.032652
O	      8.43456      4.07500      6.21931        -0.065692      0.587196      0.060032
O	      2.33451      4.13547      4.14684        -0.702060      0.684753      0.025103
O	      4.19178      6.11192      3.96527        -0.230941     -0.248929      0.293682
O	      4.14311      4.10059      6.26904        -0.046495      0.000239     -0.090573
O	      6.20129      4.00325      8.37183        -0.104636      0.042382     -0.140413
O	      8.46599      6.29596      8.34850         0.043970      0.097015     -0.152754
O	      1.94332      6.31106      6.18614         0.041467     -0.072463     -0.110881
O	      4.13871      8.35800      6.25623         0.000462      0.014764     -0.042598
O	      4.15324      6.13369      8.33916         0.097272     -0.101902     -0.199847
O	      6.27200      8.19535      8.44308         0.183509     -0.087310      0.154167
O	      6.24670      6.27983     10.55398         0.000366     -0.015136      0.045463
O	      8.18914      8.30213     10.44991        -0.074683     -0.146053     -0.126952
