# total energy = -207.26841492 eV
 
CRYSTAL
PRIMVEC
-0.018142 6.330400 6.262482 
6.109101 0.005901 6.239636 
4.085054 4.217633 -0.009076 
PRIMCOORD
36 1
Li	      4.02178      4.23896      0.14486        -0.011268      0.067861      0.068238
Li	      6.00891      4.33360      2.17432         0.082042     -0.042004     -0.007598
Li	      4.01349      2.09442      2.16125        -0.009316     -0.005532      0.054462
Li	      8.05752      4.24929      4.28660        -0.025809      0.038848      0.067181
Li	      2.13035      4.11457      1.98917         0.002070     -0.007390      0.054061
Li	      6.23205      6.15335      4.14448        -0.020555      0.000089      0.023336
Li	      8.16664      6.11307      6.12116         0.019185     -0.147033      0.010993
Li	      6.20565      4.12323      6.16588        -0.069419      0.095109     -0.025829
Li	      1.98790      4.25252      6.22281         0.024991      0.003459      0.001404
Ti	      3.99433      4.27806      8.17969        -0.229094      0.267669     -0.488802
Fe	      0.10525      4.31422      4.22938         0.010751     -0.024913     -0.190296
Fe	      6.13414      6.32591      8.23726        -0.175939      0.000049     -0.469072
Co	      6.05451      2.10465      4.22376        -0.342527     -0.163389     -0.126721
Co	      0.04374      2.09101      2.07643        -0.015301     -0.151987      0.005234
Co	      8.17313      6.42490     10.38755         0.055193     -0.041523      0.318677
Co	      4.09782      6.37447      6.19743        -0.366654      0.026201      0.302762
Cu	      4.02289      4.10485      4.10661         0.026250     -0.050117      0.043699
Ni	      2.04605      2.15908      0.06897        -0.476293      0.599675      0.294542
O	      8.15970      4.03832      6.24074         0.163618      0.306454     -0.021941
O	      1.92030      2.10853      2.11290         0.099821     -0.048037     -0.110468
O	      4.07354      4.44309      2.16300        -0.034680      0.073907      0.035380
O	      4.16323      1.97207      4.19598         0.292318     -0.070168     -0.075005
O	      5.98559      3.96179      4.16427         0.045872      0.014461      0.048861
O	      6.19921      2.08142      6.38783        -0.166122     -0.149244      0.091106
O	      2.04102      4.49153      4.20529         0.085760      0.158749     -0.091325
O	      4.00592      6.52938      4.08613        -0.116381      0.132449      0.767769
O	      4.02768      4.28789      6.31604         0.093200      0.705507      0.167758
O	      6.00062      6.30772      6.26856        -0.164459      0.013976      0.132611
O	      6.01546      4.25450      8.41836        -0.081106     -0.047944      0.049643
O	      8.18779      6.45877      8.40330         0.075840      0.114717     -0.097972
O	      2.15462      6.50577      6.09051         0.577144     -0.521869     -0.384486
O	      4.02152      8.43046      6.18049         0.352494     -1.064375      0.192371
O	      4.10591      6.23040      8.28924        -0.068527     -0.138254     -0.767751
O	      6.17030      8.33874      8.30949         0.330316      0.083247     -0.033609
O	      6.23291      6.39766     10.32254         0.054131     -0.045376      0.101306
O	      8.08553      8.38844     10.33120        -0.017548      0.016732      0.059479
