# total energy = -208.44543713 eV
 
CRYSTAL
PRIMVEC
-0.026736 6.485708 6.293402 
6.027979 0.013515 6.251897 
3.998129 4.275899 0.029601 
PRIMCOORD
36 1
Li	      8.03340     10.74207     10.56297        -0.024455      0.046789     -0.019492
Li	      5.93008      2.34824      8.34954         0.083551     -0.001619     -0.100623
Li	      3.96938      4.32102      4.25458         0.006160     -0.103951     -0.022184
Li	      7.97985      6.52489      6.36732         0.000762      0.068583      0.010226
Li	      5.92734      4.41813      6.35860         0.004535      0.034413      0.045892
Li	      5.94886      4.32449     10.36210        -0.011451      0.099782     -0.045096
Li	      4.03679      6.35403      6.24594        -0.013830     -0.052783      0.106790
Li	      4.13233      4.21793      8.31647        -0.013921     -0.024380     -0.038997
Li	      5.96108      6.31488      8.34302        -0.097638     -0.020151     -0.064963
Ti	      2.09234      6.49779      8.42385         0.404923     -0.001341      0.193029
Fe	      6.01508      2.08251      4.25746        -0.253132      0.172084     -0.147353
Fe	      7.90565      4.46238      8.37685         0.220452     -0.387477      0.007904
Co	      6.03280      0.02654      6.25453        -0.028730      0.003862      0.027989
Co	      8.03939      2.18294      6.26604        -0.016239      0.030590      0.044140
Co	      5.87574      6.42684      4.27267         0.000139     -0.043944     -0.006086
Co	      2.10781      4.19104      6.20188         0.124515     -0.121482      0.024465
Cu	      4.00115      8.64588      8.39001        -0.000291     -0.168124      0.091968
Cu	      2.04967      6.49352      4.17496         0.158939     -0.040944     -0.017825
O	      7.99849      6.37254      8.45597         0.004588      0.249295      0.070617
O	      2.03105      2.06175      2.00244        -0.387100     -0.045415     -0.115778
O	      3.99863      4.19984      1.96294         0.174589      0.473535     -0.052729
O	      3.98448      2.10619      4.07941        -0.011669     -0.006723      0.173280
O	      5.96392      4.28564      4.05113         0.034934     -0.101701     -0.176931
O	      6.09684      2.00071      6.24368         0.019962     -0.039089      0.060127
O	      8.11160      4.12159      6.36181         0.071566     -0.058126     -0.101741
O	      1.98109      4.12643      4.18363        -0.016111      0.176855      0.016810
O	      4.03946      6.40194      4.18818        -0.040036      0.017440      0.022255
O	      3.88311      4.32770      6.29342        -0.182872     -0.045956     -0.039307
O	      5.99213      6.50866      6.20622         0.016221      0.100783      0.084673
O	      6.04546      4.31691      8.34264        -0.178340      0.004168     -0.004322
O	      1.92616      6.64026      6.31089        -0.013582      0.045685     -0.036151
O	      3.99635      8.82159      6.37580         0.000486      0.109264     -0.150809
O	      3.94036      6.58847      8.31840        -0.510661     -0.328076      0.047500
O	      5.98042      8.79280      8.38943         0.373228      0.165499      0.051475
O	      6.09029      6.58197     10.60616        -0.070826     -0.041809      0.016195
O	      7.94888      8.73524     10.65666         0.171333     -0.165536      0.045050
