# total energy = -211.94431409 eV
 
CRYSTAL
PRIMVEC
0.022022 6.286856 6.156560 
6.083076 0.007787 6.170542 
4.074753 4.221016 -0.013530 
PRIMCOORD
36 1
Li	      4.10537     10.46056      6.17644         0.125695     -0.059383     -0.045056
Li	      6.04548      4.15006      2.16394        -0.062746     -0.043985     -0.090651
Li	      6.07211      2.22261      4.02462        -0.042088      0.047464     -0.023920
Li	      4.04227      6.30414      2.10057         0.016352     -0.027554      0.067158
Li	      6.13165      6.29070      4.13093        -0.026046     -0.091764      0.001800
Li	      4.12967      4.14567      4.08134         0.101953      0.001560     -0.014882
Li	      4.06887      2.21348      6.09392         0.016093     -0.025305     -0.008435
Li	      6.13735      8.37521      6.17399        -0.145624      0.099908     -0.022514
Li	      6.14168      6.36572      8.16716         0.011240      0.034714      0.059662
Ti	      1.91603      2.04884      0.06580         0.121939     -0.596242     -0.092564
Fe	      4.08159      0.15830      4.03933         0.288817     -0.139537     -0.087581
Fe	      2.06800      4.24695      2.08143        -0.093925      0.225795      0.205689
Co	      4.20708      8.42479      8.22826        -0.062753      0.231002     -0.161394
Co	      6.06922      4.29410      6.10609         0.025915      0.067969      0.017277
Co	      4.09328      8.37517      4.08965        -0.133588      0.059577      0.271954
Co	      8.09451      6.27884     10.25289         0.250048     -0.029803      0.538309
Co	      4.08712      6.31922      6.15720        -0.345196      0.359457     -0.400173
Cu	      8.09737      8.39290      8.15982        -0.175626     -0.033395      0.161597
O	      2.10848      2.15535      1.93103        -0.384454     -0.026037     -0.090110
O	      4.01221      4.06573      2.05148         0.085582      0.116977     -0.103886
O	      4.10053      2.05465      4.07658        -0.003555      0.253502      0.263542
O	      6.23440      4.22619      4.13750        -0.365850     -0.111967      0.047560
O	      6.16642      2.17769      6.17684        -0.113118      0.348175     -0.019132
O	      8.10158      4.10830      6.12164        -0.569433      0.144902      0.095783
O	      1.92202      4.31081      4.08872         0.156582      0.097152      0.007103
O	      3.98017      6.41046      4.22077        -0.125098     -0.058947     -0.029043
O	      4.11689      4.36799      6.21964         0.725471      0.071774     -0.093328
O	      5.98752      6.21572      6.14047         0.160089     -0.626679      0.134460
O	      6.08810      4.16204      8.30917         0.181724     -0.053548     -0.026392
O	      8.14990      6.20750      8.37048        -0.041885      0.032106     -0.476554
O	      2.10171      6.36969      6.02880        -0.007552      0.468997      0.155457
O	      4.03622      8.27152      6.04647        -0.031866     -0.060772     -0.073482
O	      4.09562      6.50820      8.14318        -0.075033     -0.415503      0.010821
O	      6.09998      8.43752      8.18901         0.629215     -0.075899     -0.102149
O	      6.11729      6.10423     10.30166        -0.041575     -0.106926     -0.025892
O	      8.22833      8.31108     10.26600        -0.049704     -0.077787     -0.051033
