# total energy = -211.08677579 eV
 
CRYSTAL
PRIMVEC
-0.063893 6.273618 6.134705 
6.205686 -0.053703 6.126342 
4.099424 4.139874 0.000942 
PRIMCOORD
36 1
Li	      8.15618      8.30311     12.20713         0.003731      0.002044     -0.007232
Li	      8.17971      4.08851      4.14519         0.021601      0.024186      0.024042
Li	      2.03910      4.13762      2.16494        -0.041933      0.036468      0.001196
Li	      6.09955      6.23230      4.14122         0.094499     -0.039788      0.006681
Li	      4.08149      4.18488      4.15742         0.036318     -0.078833      0.032775
Li	      4.13187      2.03271      6.02400         0.009202     -0.001713     -0.004841
Li	      6.19844      4.11233      6.05631         0.018125      0.004095      0.004827
Li	      4.08519      8.23583      4.15950        -0.076836      0.085213      0.002947
Li	      2.06123      6.25053      4.13167        -0.036469      0.037829      0.001482
Ti	      6.27511      6.06652      8.21087         0.355530     -0.356110      0.043107
Fe	      4.02493      2.08162      2.12034         0.030165      0.004042     -0.086515
Fe	      6.24231      2.13047      4.17897        -0.165554     -0.143408     -0.012641
Co	     10.11044      4.10014      6.06081        -0.197939      0.054167      0.042989
Co	      2.02058      6.23521      8.16101         0.030013      0.109102      0.046792
Co	      4.09801      6.23739      2.13014         0.035506     -0.010690     -0.026060
Co	      2.04044      4.18305      6.07773        -0.035257      0.012942     -0.198731
Co	      4.04853      6.25139      6.07042         0.052805     -0.016051     -0.154678
Ni	      4.09198      4.15938      8.17832         0.135465     -0.066551      0.030328
O	      2.08995      1.88883      2.03761        -0.106779     -0.041087     -0.000934
O	      4.26016      4.09685      1.95571        -0.021196      0.023515     -0.040408
O	      4.25093      2.04363      4.02164        -0.090174     -0.013543      0.106676
O	      6.19643      4.05326      3.95891         0.006058      0.181341     -0.108587
O	      6.19061      1.98255      6.14778        -0.021982     -0.065459      0.090903
O	      8.34874      4.05827      6.16901         0.167276      0.002141     -0.036809
O	      2.02790      4.16356      4.21639         0.019458      0.004547      0.245148
O	      4.06377      6.24621      4.12737         0.002274      0.021059      0.091631
O	      3.97702      4.32854      6.16054        -0.148123      0.035678     -0.145165
O	      6.00861      6.35100      6.22574        -0.013511      0.096269     -0.003785
O	      6.16226      4.22321      8.14821         0.070376      0.258958      0.017330
O	      8.11892      6.21588      8.12555        -0.253096     -0.058893      0.005530
O	      2.07580      6.12451      6.20595        -0.001130     -0.067622      0.037620
O	      4.17331      8.27423      6.17828         0.109052     -0.008883     -0.031886
O	      4.03424      6.27501      8.02258        -0.049814      0.065472      0.019593
O	      6.09643      8.36371      8.09134        -0.095163     -0.015373     -0.063737
O	      6.11590      6.31513     10.10622        -0.030776     -0.080198     -0.052114
O	      8.07378      8.29884     10.18040         0.188276      0.005135      0.122525
