# total energy = -213.54611011 eV
 
CRYSTAL
PRIMVEC
0.029092 6.273947 6.097415 
6.210352 0.015675 6.111236 
4.137177 4.188526 0.013701 
PRIMCOORD
36 1
Li	      6.19351      4.21282      2.12421         0.016812      0.003802     -0.032916
Li	      6.29297      8.39117     10.14282         0.022884     -0.010013      0.003675
Li	      4.10945      6.29904      2.17331         0.013178     -0.044220      0.012280
Li	      2.02834      4.24797      2.16369         0.021124      0.011281      0.015160
Li	      6.13090      6.27420      3.99878        -0.022616      0.049155      0.024786
Li	      4.18679      4.27977      4.04264        -0.069328      0.006291      0.004284
Li	      6.20525      4.14368     10.07038        -0.037677     -0.033354      0.028934
Li	      8.35349      6.31446     10.08122         0.074024     -0.006452     -0.021357
Li	      8.33866      8.30194      8.22035        -0.032736      0.014242      0.028969
Ti	      4.10735      2.19575      2.20049        -0.080985      0.213246      0.129623
Fe	      8.20202      2.08995      6.10556        -0.101760      0.088174      0.024394
Fe	      4.13465      6.23487      5.99732         0.065808     -0.069253      0.168209
Co	      2.11583      4.21417      5.98239         0.062568     -0.099825     -0.069161
Co	      6.23989      6.30810     12.17538        -0.070652      0.163293     -0.039882
Co	      8.28786     10.41277     10.15206         0.139735     -0.120827     -0.072374
Co	      4.16597      2.13174      6.13147        -0.005531     -0.037787      0.051689
Co	      6.23514      4.20213      6.13987         0.178755     -0.362486     -0.207862
Co	      6.24554      6.25664      8.13973         0.059097      0.152700     -0.078829
O	      2.19042      2.08691      1.96803         0.231437     -0.003839      0.195137
O	      4.18272      4.05637      2.01572         0.028889     -0.320887      0.190512
O	      4.16597      2.09995      4.10301         0.002236     -0.020959     -0.236945
O	      6.41157      4.19090      4.18329        -0.115739      0.096708      0.253210
O	      6.14552      2.22504      6.18670        -0.112495     -1.224769      0.013493
O	      8.22770      4.30592      6.09119         0.525596     -0.034693      0.043025
O	      2.07921      4.17720      4.22636        -0.040438      0.030459     -0.011549
O	      4.17793      6.25575      4.15947         0.031724      0.013359     -0.319398
O	      4.25359      4.11792      6.11249        -0.704290     -0.007001     -0.025122
O	      6.31031      6.18400      6.20387         0.132163      1.452695      0.043787
O	      6.22887      4.34038      8.04632        -0.029014      0.037191     -0.052150
O	      8.18008      6.29106      8.03005        -0.199911      0.001211     -0.026258
O	      2.10396      6.28854      6.12397         0.074919     -0.042738     -0.008865
O	      4.12485      8.31561      6.17738         0.010222      0.083426      0.046587
O	      4.26130      6.34355      8.07120         0.058644      0.023434      0.030063
O	      6.14565      8.24672      7.99179        -0.126377     -0.109874      0.126475
O	      6.02519      6.27883     10.09407        -0.000700     -0.034615     -0.058148
O	      8.26964      8.40077     10.29385         0.000436      0.142924     -0.173477
