# total energy = -186.19478986 eV
 
CRYSTAL
PRIMVEC
4.145263 0.000034 4.145655 
-4.124353 4.131321 -0.020876 
-8.302767 -4.206014 4.157861 
PRIMCOORD
32 1
Li	     -7.26285     -3.17041      5.18872         0.000061      0.001511      0.000659
Li	     -3.09947      0.99678      5.17377        -0.002686      0.003525     -0.004285
Li	     -9.40379      0.97963      3.00975        -0.008180     -0.000882     -0.007570
Li	     -0.94408      1.01847      3.19174         0.008399     -0.000423      0.007731
Li	     -7.27249     -1.16922      3.14045         0.004754      0.020544      0.008504
Li	     -3.07352      3.16706      3.05840        -0.006556     -0.023934     -0.006903
Li	     -5.14728     -1.00316      5.16139         0.005768     -0.019692      0.006351
Li	     -5.19565      3.00070      1.03891        -0.010260      0.018593     -0.006991
Mn	     -5.17227      0.99806      3.10005        -0.000761     -0.002579      0.000632
Mn	     -5.19033     -3.16998      7.26169         0.002920     -0.001515      0.000395
Mn	     -3.11037     -1.06801      3.11009        -0.000618      0.001266      0.000684
Mn	     -9.32508     -1.10439      5.17842        -0.001657     -0.001498      0.000174
Ni	     -3.09306      1.01671      1.03878         0.010964      0.001152      0.010557
Ni	     -7.25272      0.97907      5.16106        -0.010839      0.001247     -0.011252
Ni	     -7.25271     -1.10493      7.25133         0.002428      0.003038      0.000956
Ni	     -1.03779     -1.06760      5.18290         0.001721     -0.000121      0.002882
O	     -5.07496     -0.96787      3.10793         0.009941      0.017295      0.121075
O	     -1.02025      3.20154      2.98518        -0.120113      0.016038     -0.009304
O	     -7.40096     -1.06907      5.18607        -0.042329     -0.115868     -0.103990
O	      1.02710     -1.03215      5.33167         0.107839     -0.115207      0.041826
O	     -5.20804     -3.28129      5.30488        -0.105981     -0.025937      0.018730
O	     -0.99251      0.99143      5.31006        -0.124742      0.107199      0.029722
O	     -3.25454     -3.17734      7.22688        -0.031573      0.110107      0.123557
O	     -3.21550      0.88623      3.11812        -0.019962     -0.022592      0.105224
O	     -5.18214     -1.20427      7.35945         0.122189     -0.016010      0.009904
O	     -1.14595     -1.16758      3.11247        -0.007632     -0.019162     -0.117915
O	     -3.10265     -1.10375      5.03463        -0.107453      0.116978     -0.042171
O	     -2.94705      3.06568      1.01324         0.047024      0.116047      0.104034
O	     -5.20742      1.00501      5.03570         0.124364     -0.111597     -0.030675
O	     -1.01463      1.14720      0.91484         0.106076      0.024130     -0.018886
O	     -7.12874      1.10879      3.08198         0.015779      0.026698     -0.107749
O	      1.17676      1.04268      3.13921         0.031114     -0.108350     -0.125908
