# total energy = -204.60627880 eV
 
CRYSTAL
PRIMVEC
0.038280 6.346225 6.070329 
6.376474 0.016659 6.091776 
4.253038 4.247139 0.009090 
PRIMCOORD
36 1
Li	      6.41214      0.16563      6.05928        -0.083404      0.068677     -0.030344
Li	      8.37150      2.08345      6.05558        -0.015008      0.065814     -0.071954
Li	      6.43998      2.11716      4.15779         0.092625      0.005966      0.081867
Li	      4.26435      4.22527      4.15630        -0.063140      0.006475     -0.053815
Li	      4.39646      2.26655      6.02157         0.092453     -0.082554     -0.057192
Li	      6.22681      4.16116      6.09462         0.092275     -0.122732      0.033748
Li	      8.45663      6.46981     10.20542        -0.027007      0.076032      0.011473
Li	      2.28432      4.23776      6.05046        -0.081312      0.056356     -0.017915
Li	      8.49080      8.45032      8.06506        -0.004367     -0.016904      0.118329
Ti	      8.48729      4.39010      8.01397        -0.182972     -0.051397     -0.186823
Fe	      4.35549      8.52243      8.06297        -0.216299      0.167662     -0.064067
Fe	      8.50840      4.21035      4.17081         0.066792     -0.073544     -0.056598
Fe	      4.25613      8.47886      4.12727        -0.086674      0.085639     -0.131383
Co	      2.17156      6.34406      8.06282         0.041112      0.033271      0.048716
Cu	      6.40180      6.35504      4.11876         0.078025      0.048117     -0.181594
Cu	      4.27275      6.26538      6.07023        -0.219433      0.213066      0.076704
Cu	      6.43021      6.40475      8.05814         0.050733     -0.037641      0.028675
Ni	      6.38559      2.08222      8.06072         0.034914      0.019118      0.176724
O	      2.26027      6.35140      6.22743         0.287484     -0.004568     -0.105553
O	      6.30404      8.72252      8.17481         0.301710     -0.048443      0.020336
O	      2.17058      2.00928      2.07119         0.001895      0.000378     -0.138994
O	      4.07618      4.19440      2.04232         0.005322      0.019446      0.011176
O	      4.15291      2.03153      3.98688         0.062298      0.089281      0.434260
O	      6.49052      4.33158      3.91428        -0.098498     -0.081476      0.050760
O	      6.37591      2.12774      6.13378        -0.066395     -0.072252     -0.260249
O	      8.49161      4.23936      6.14119        -0.040017      0.032778      0.200129
O	      2.03980      4.13751      3.95396         0.345470      0.062243      0.035895
O	      4.35493      6.40704      4.06529        -0.081807     -0.244385     -0.220104
O	      4.26075      4.33700      6.09518         0.052897      0.256793      0.005063
O	      6.29249      6.35834      6.10463        -0.182973     -0.019514      0.136680
O	      6.54153      4.06887      8.19260         0.082763      0.150510     -0.374222
O	      8.45034      6.25321      8.12719        -0.064623      0.022940     -0.031917
O	      4.28939      8.40334      6.08697         0.056195     -0.515342      0.200655
O	      4.44519      6.47536      8.08456        -0.045413     -0.188060      0.335440
O	      6.34285      6.29243     10.05416         0.124792      0.115783      0.054470
O	      8.65691      8.57270     10.12198        -0.310413     -0.037531     -0.078377
