# total energy = -204.85523041 eV
 
CRYSTAL
PRIMVEC
-0.031843 6.218407 6.338779 
6.252975 -0.028094 6.335267 
4.142981 4.117751 0.006583 
PRIMCOORD
36 1
Li	      6.30961      6.22194     12.57846        -0.124511      0.025225      0.087305
Li	      2.04495      8.11909      6.25522        -0.027600      0.079041      0.074814
Li	      8.22096      4.15062      8.49287         0.027783      0.163280     -0.105420
Li	      6.13817      6.26179      4.24661        -0.012113      0.095031      0.049379
Li	      0.02870      4.11200      4.17868         0.151132     -0.096316     -0.030912
Li	      2.01542      6.22898      4.31013         0.014460     -0.046985     -0.082655
Li	      4.02442      6.25213      6.22996         0.072163     -0.123394     -0.020915
Li	      8.31011      8.20974      8.53547        -0.021439     -0.122165     -0.142388
Li	      6.29737      6.14073      8.52522         0.017962      0.084174     -0.071703
Ti	      4.07661      8.25008      8.26041        -0.123484     -0.057411     -0.388377
Fe	      8.38013     10.22680     10.58122        -0.286191      0.441888      0.459889
Fe	      4.07159      4.20957      4.20486        -0.041657     -0.250384      0.440576
Fe	      6.23763      4.17402      6.45718         0.082169      0.353150     -0.262355
Co	      8.29865      6.17353      6.40395        -0.246905      0.112830     -1.177390
Cu	      2.06745      6.20286      8.41201        -0.000506      0.107397     -0.183664
Cu	      6.25527      8.21473     10.57662        -0.125038     -0.062391      0.197916
Cu	     10.35525      6.22930      8.50392        -0.516464      0.131876     -0.140994
Cu	      2.05017      4.13540      6.29541         0.292628     -0.228183     -0.105639
O	      8.26556      6.16144      8.19333         0.532574     -0.041985      1.187951
O	      2.06679      6.11387      6.39906        -0.019589      0.054056     -0.060119
O	      8.22501      8.31140     10.59631        -0.352332     -0.297755     -0.017225
O	      2.20923      1.98350      2.09066        -0.118239      0.141163      0.120928
O	      4.18656      3.99772      2.21384        -0.035181     -0.112350     -0.116716
O	      4.25633      2.04403      4.35553         0.430684      0.019010     -0.348424
O	      6.22853      4.02460      4.30036         0.024541     -0.355015     -0.013424
O	      6.10141      2.12353      6.52491         0.314404     -0.166673     -0.064866
O	      8.24625      4.28988      6.27264        -0.058296     -0.697908      0.032289
O	      2.15120      4.13343      4.31389        -0.199216     -0.052958     -0.086966
O	      4.14930      6.12964      4.13231         0.014011      0.256162     -0.220956
O	      4.16788      3.98575      6.28072         0.067429      0.581390      0.027162
O	      6.35829      6.17890      6.32938        -0.150301      0.035671     -0.070953
O	      6.23166      4.13764      8.35882         0.013683     -0.271575      0.501972
O	      4.14942      8.24104      6.42046        -0.166889     -0.004608      0.233162
O	      4.08850      6.31615      8.54820         0.237621      0.111330      0.041901
O	      6.10513      8.32602      8.33718         0.039267     -0.161877      0.258510
O	      6.16049      6.24741     10.55515         0.293442      0.357258     -0.001693
