# total energy = -203.74013647 eV
 
CRYSTAL
PRIMVEC
-0.005302 6.212798 6.168564 
6.239969 -0.023689 6.186820 
4.138617 4.132585 0.005861 
PRIMCOORD
36 1
Li	      6.18438     -0.00403      6.11411        -0.057470      0.017822      0.017104
Li	      4.14463      8.23646      8.21341        -0.004847      0.028429      0.026413
Li	      4.21708      6.24907     10.28036         0.030513      0.061795     -0.016206
Li	      6.26062      8.16051     10.32755        -0.078506      0.026262     -0.026753
Li	     10.32513      6.20679      8.23071         0.040204     -0.014113     -0.018451
Li	      8.26673      4.20067      8.19005         0.028928     -0.029144     -0.009224
Li	      2.08030      2.05057      4.05858         0.043639      0.013531      0.003224
Li	      8.29092      8.21656      8.32932        -0.016036      0.055174     -0.050674
Li	      6.33748      6.17844      8.29481        -0.025442      0.011515     -0.038662
Ti	      4.13565      4.03983      4.05273         0.093261     -0.549446     -0.141711
Fe	      2.10691      0.00443      2.08317        -0.152746     -0.135157      0.137274
Fe	      6.31917      4.04594      6.31687        -0.262315      0.231222     -0.286234
Fe	      4.20793      6.25709      6.21427         0.067369     -0.157533      0.120156
Co	      2.07074      4.16294      6.18880         0.074562     -0.095494      0.073727
Ni	      8.28167      2.06565      6.17477        -0.013298      0.037476      0.079962
Ni	      8.31338      6.16852      6.25782        -0.119373     -0.008526     -0.414942
Ni	      6.22071      4.14958     10.20908         0.096037     -0.051349     -0.099703
Ni	      8.27142      6.20682     10.23197         0.045040     -0.094674     -0.280113
O	      2.07826      1.86147      1.99430         0.016507      0.192970      0.018870
O	      4.24270      4.08029      2.18510        -0.086165      0.012390      0.197206
O	      4.12558      2.15042      4.32289        -0.066444      0.492298     -0.718127
O	      6.07622      4.16570      4.19251        -0.086795      0.012699      0.046195
O	      6.16724      2.12183      6.19196         0.467329     -0.107593     -0.005598
O	      8.23921      4.14225      6.16988         0.153215     -0.436669     -0.014861
O	      2.12491      4.17237      4.19876         0.035972      0.009161      0.060888
O	      4.05976      6.12936      4.19732        -0.035880      0.034591     -0.086405
O	      4.06830      4.14817      6.14693         0.007649      0.385999     -0.039140
O	      6.21131      6.31293      6.22662        -0.256513      0.010650      0.020320
O	      6.23170      4.14076      8.17801        -0.008429     -0.031191      0.188302
O	      8.31975      6.18881      8.10253         0.005681      0.004118      1.312329
O	      2.12319      6.11180      6.16490        -0.021028     -0.003059      0.004795
O	      4.25662      8.22820      6.10727         0.030112      0.071443      0.020342
O	      3.98735      6.21055      8.19923         0.205730      0.052469      0.061427
O	      6.19565      8.45272      8.10096         0.001398     -0.204739     -0.081077
O	      6.35146      6.15023     10.24881        -0.081636      0.101088     -0.009820
O	      8.33705      8.15684     10.35775        -0.070219      0.055584     -0.050834
