# total energy = -206.00696610 eV
 
CRYSTAL
PRIMVEC
-0.015610 6.325481 6.035196 
6.318760 -0.018623 6.037156 
4.206219 4.212790 -0.006852 
PRIMCOORD
36 1
Li	      4.24949      2.05442      2.18260         0.029254     -0.028518     -0.088877
Li	      4.25323      6.36577      9.97589        -0.076512      0.086840      0.008530
Li	      6.22764      8.34853      9.97060        -0.060693      0.071652      0.024506
Li	      2.10329      4.27931      2.09673        -0.013350      0.021521     -0.000380
Li	      2.17939      2.16858      3.96284         0.031138     -0.012143      0.011379
Li	      4.14096      4.15605      3.97715         0.010815     -0.122120     -0.049782
Li	      8.39529      6.27807      9.93749         0.027121     -0.015075      0.068797
Li	      8.39443      8.35304      8.11316        -0.017057      0.033398      0.017903
Li	      6.31204      6.38298      8.12810        -0.066595      0.049158      0.022424
Ti	      8.43155      8.50698     11.99700        -0.115267      0.099020     -0.321558
Fe	      6.37092      4.17708      2.13746         0.037045     -0.038332      0.108999
Fe	      6.27226      4.25754      6.00761        -0.017772      0.010434     -0.270179
Fe	      4.21714      6.28277      6.00867         0.005321     -0.006351      0.081742
Co	      6.30988      6.32022     12.03680         0.094018     -0.099592     -0.292304
Co	      2.11724      4.18956      6.02572         0.072205      0.001736      0.154664
Cu	      4.15769      6.31620      2.06410         0.049270      0.066126      0.136135
Ni	      6.32628      4.21671      9.99668         0.035711     -0.173122     -0.145019
Ni	      4.19283      2.11029      6.00391        -0.032512     -0.022373      0.111880
O	      8.50469      6.28801      7.94645         0.050909     -0.031361      0.205478
O	      2.02632      1.99208      1.93005        -0.076130      0.159990      0.028279
O	      4.26615      4.30337      1.86651        -0.120963     -0.029133     -0.006585
O	      4.21080      2.09999      4.10766        -0.013129     -0.059719     -0.343910
O	      6.30706      4.17687      4.06841         0.010510      0.012762      0.006761
O	      6.39663      2.09077      6.03509         0.214542      0.111144     -0.092087
O	      8.37579      4.11353      6.05334         0.201709     -0.344124     -0.011454
O	      2.02518      4.21969      4.18314         0.159578      0.071510      0.071621
O	      4.17822      6.39648      4.05640         0.013213     -0.098260      0.018828
O	      4.22355      4.26131      5.99716        -0.180358     -0.017790     -0.008293
O	      6.24983      6.27847      6.08407         0.025391      0.229680     -0.011159
O	      6.31412      4.09038      7.94272         0.028955     -0.079430      0.262779
O	      2.13140      6.36194      6.07935        -0.051558      0.050698     -0.156042
O	      4.14010      8.43048      6.05377        -0.231530     -0.124411      0.120556
O	      4.11591      6.33444      7.96676         0.142073      0.029433      0.062488
O	      6.29151      8.52195      7.91385        -0.067372     -0.182921     -0.208802
O	      6.30648      6.23740     10.19729         0.014550      0.344254      0.146623
O	      8.44715      8.38006     10.15713        -0.112531      0.035418      0.336058
