# total energy = -207.34119369 eV
 
CRYSTAL
PRIMVEC
-0.031393 6.441975 6.133658 
6.147105 -0.033049 6.134634 
4.079584 4.276923 -0.003062 
PRIMCOORD
36 1
Li	      8.18342      2.20131      6.10196         0.020798     -0.028840     -0.048401
Li	      2.08075      0.10421      2.06348         0.005658      0.030547      0.063256
Li	      3.96959      2.12310      2.09481        -0.002602      0.034493      0.027895
Li	      4.13133      0.01218      4.09539        -0.045805     -0.049764     -0.083959
Li	      6.10448      8.40412     10.24316        -0.001407     -0.028676     -0.017035
Li	      2.04138      4.18144      2.00617        -0.005085      0.007315      0.144367
Li	      8.20295      6.31456      6.08354         0.021781      0.059488      0.019224
Li	      6.05956      4.41910     10.20832         0.008085      0.037681     -0.046450
Li	      8.07622      6.54969     10.23343         0.035513      0.059975     -0.028764
Ti	      5.89669      8.63934      6.14983        -0.038503      0.142622     -0.213093
Fe	      0.04232      2.12599      2.03789        -0.312013     -0.059432      0.222386
Fe	      4.11154      4.17130      4.03333        -0.022322      0.029354     -0.004939
Fe	      8.17168      8.53917      8.23673         0.033504     -0.112343     -0.214214
Co	      2.06151      2.12999      4.10538        -0.016920     -0.000438     -0.060382
Co	      6.20514      4.20079      6.11789         0.996718     -0.365156     -0.337710
Cu	      4.03895      6.43331      6.11130         0.046744      0.186307     -0.021130
Cu	      6.17695      6.37163      8.27039         0.060850     -0.037583     -0.053745
Ni	      6.06289      0.03907      6.11006         0.031488     -0.217632     -0.130073
O	      6.11785      6.41431     10.22398        -0.065733      0.008144      0.177297
O	      1.97062      2.12356      2.19154         0.333664      0.045278      0.017528
O	      4.05041      4.39087      2.07760        -0.016322     -0.009994     -0.124358
O	      3.98729      2.23214      4.05647         0.057684     -0.125898      0.074882
O	      6.09699      4.44394      4.20433        -0.132309      0.265484     -0.810118
O	      6.18523      2.05149      6.21641         0.027818      0.391501     -0.283464
O	      8.03300      4.26432      6.12366         0.123663      0.025775      0.003849
O	      2.09874      4.11419      4.21706        -0.113573     -0.080777      0.097060
O	      4.17417      6.33172      4.10697        -0.015115     -0.072023      0.064568
O	      4.24752      4.16067      6.19376        -0.587750      0.155079     -0.135607
O	      6.04625      6.53831      6.06279         0.114260     -0.157482      0.016948
O	      6.15686      4.19953      8.06289        -0.138890      0.163128      0.997203
O	      8.19625      6.55138      8.21570         0.007108     -0.141165     -0.043599
O	      2.08571      6.25406      6.12215        -0.191080     -0.216276      0.013979
O	      4.06430      8.72580      6.13952         0.076328     -0.124577      0.036877
O	      4.17767      6.22278      8.07650        -0.149379      0.171380      0.018494
O	      6.15593      8.44315      8.04343        -0.154023      0.027917     -0.076845
O	      8.14369      8.59039     10.00822         0.007166     -0.013417      0.738072
