# total energy = -207.11276350 eV
 
CRYSTAL
PRIMVEC
0.056352 6.228096 6.184436 
6.235392 0.030843 6.209146 
4.172373 4.184083 0.005274 
PRIMCOORD
36 1
Li	      0.10317      6.16040      6.14579         0.047074      0.000438      0.076573
Li	      2.19621      8.29428      6.21115         0.017826     -0.018179      0.069409
Li	      4.09108      2.16387      2.00143        -0.034595      0.047154     -0.133360
Li	      2.15643      4.08705      2.06831         0.039006     -0.086011     -0.043279
Li	      2.13320      2.17487      4.14859        -0.021167      0.020135      0.028156
Li	      4.15571      2.07950      6.14629        -0.018428     -0.023024      0.066480
Li	      2.10899      6.22602      4.25806         0.049404      0.004502      0.104936
Li	      2.06503      4.21302      6.12633        -0.009962      0.023963      0.129845
Li	      4.17558      6.29591      6.16803         0.007983      0.024287      0.008503
Ti	      4.21232      6.19210      2.11604         0.158095     -0.324964     -0.041572
Fe	      2.17048      6.23603      8.08885        -0.073340     -0.104751      0.154726
Fe	      6.30400      4.23856      6.16746        -0.130639     -0.118149      0.094493
Fe	      4.34950      8.37303      4.30506        -0.075519     -0.079245     -0.084398
Co	      6.31182      8.32102     10.34498        -0.748874     -0.246416      0.632373
Co	      8.37001      8.33815      8.27239        -0.160767      0.006153     -0.168309
Ni	      4.15450      0.07981      4.16518        -0.090029     -0.018820      0.037137
Ni	      4.09483      4.13692      4.17806        -0.106550      0.158461      0.050131
Ni	      6.30158      6.27076      8.24655         0.058113      0.112320     -0.133976
O	      1.96125      2.01944      2.08126        -0.208139      0.026270      0.041831
O	      4.16050      4.29410      2.06165         0.016992      0.271459     -0.015278
O	      4.33975      2.11675      4.09194         0.005181     -0.013938     -0.086704
O	      6.20126      4.04417      4.11528        -0.024536      0.072294     -0.009976
O	      6.25855      2.25944      6.18280         0.111917      0.101060      0.971044
O	      8.14548      4.20524      6.20717         0.216158      0.024728      0.084716
O	      2.08310      4.16012      4.11463        -0.089600      0.032496     -0.066194
O	      4.16919      6.28895      4.01456         0.015243      0.108552     -0.128587
O	      4.33267      4.19262      6.33419        -0.061615     -0.042868      0.154657
O	      6.27451      6.08813      6.22120         0.047874      0.122939     -0.180358
O	      6.13845      4.14648      8.32485         0.018195     -0.064648      0.044652
O	      8.40312      6.46976      8.24560         0.151793      0.127348      0.051135
O	      2.13058      6.20997      6.26758        -0.001313      0.063668     -0.310217
O	      4.19671      8.33336      6.14483        -0.048936      0.039565      0.008790
O	      4.19645      6.07930      8.29573        -0.018557     -0.195341     -0.032693
O	      6.43157      8.33422      8.39743         0.453950      0.070557     -1.402105
O	      6.25743      6.32303     10.29684         0.130826     -0.048884      0.162242
O	      8.31072      8.38745     10.17237         0.376935     -0.073108     -0.134824
