# total energy = -209.99935663 eV
 
CRYSTAL
PRIMVEC
-0.021384 6.324519 6.153114 
6.250344 -0.031782 6.162783 
4.149062 4.205598 -0.003399 
PRIMCOORD
36 1
Li	      6.06935      4.11093      2.16266         0.024219      0.008879     -0.014751
Li	      4.21411      2.30121      2.09851         0.010565      0.004424      0.038187
Li	      4.13275      6.16744      2.17566         0.019287      0.079425      0.024831
Li	      2.22612      4.21846      2.16475        -0.061723      0.012757      0.100465
Li	      2.04942      2.13758      4.00214        -0.021049     -0.010790     -0.025689
Li	      4.09066      4.25390      3.96127        -0.061059      0.057071      0.044184
Li	      6.30270      4.15548     10.15827         0.065439     -0.035172     -0.029866
Li	      2.03287      4.21756      6.08417        -0.021368     -0.007760      0.016265
Li	      6.25557      6.31515      8.20303        -0.012420     -0.004412     -0.012564
Ti	      2.19663      2.06969      0.20512         0.333825     -0.073301      0.567575
Fe	      4.15970      6.30662     10.10328         0.104180     -0.053634      0.076608
Fe	      8.25818      6.32768      6.16952         0.123824     -0.118880      0.012152
Fe	      6.18389      4.20725      6.19466        -0.030808      0.050500     -0.104234
Co	      6.26093      8.39099     10.23853        -0.027360     -0.017437      0.005261
Co	      2.07066      6.29010      4.09781        -0.009056     -0.083014     -0.214165
Co	      8.28369      8.36654      8.18714        -0.018213      0.052154      0.029461
Cu	      4.17319      6.29867      6.16834         0.032524      0.077615     -0.067063
Ni	      4.15631      4.21215      0.10033         0.028720     -0.027626     -0.011263
O	      2.04826      2.10065      2.00726         0.004389      0.004199     -0.597871
O	      4.14621      4.21688      2.04253         0.118224      0.016708      0.140207
O	      4.32555      1.95007      4.12569         0.023915     -0.035917     -0.014384
O	      6.36212      4.02620      4.13791        -0.023503     -0.036170     -0.018486
O	      6.23786      2.10242      6.05923         0.025542      0.104297     -0.037495
O	      8.28697      4.12571      6.10762        -0.144276     -0.013835     -0.034256
O	      1.99471      4.49502      4.10326        -0.023077      0.130276     -0.030823
O	      3.91821      6.36636      4.22345        -0.020743      0.016222      0.030047
O	      4.17902      4.07104      6.04863         0.028286     -0.124990      0.099941
O	      6.30658      6.21806      6.03942        -0.053599     -0.048109      0.025279
O	      6.04454      4.18571      8.12738        -0.110313     -0.004734      0.046888
O	      8.31166      6.39570      8.25061        -0.047596      0.079488     -0.087865
O	      2.01506      6.42757      6.03741         0.022554      0.021329      0.105558
O	      4.02117      8.46859      6.18367        -0.285226      0.111802      0.019409
O	      4.18174      6.14084      8.16378         0.000216     -0.121774      0.006925
O	      6.41050      8.37678      8.33503         0.018803     -0.040611      0.007691
O	      6.29330      6.44239     10.31959        -0.042839     -0.015170     -0.105614
O	      8.19942      8.35449     10.35690         0.029717      0.046192      0.009456
