# total energy = -210.43104464 eV
 
CRYSTAL
PRIMVEC
-0.016871 6.288041 6.126565 
6.235417 -0.005776 6.115347 
4.170075 4.197678 -0.017037 
PRIMCOORD
36 1
Li	      4.19298     10.43739      6.13499         0.005109      0.001226      0.048506
Li	      2.22398      6.16679      8.08705         0.064575     -0.050357     -0.058279
Li	      4.23730      8.23591      8.09638         0.009958     -0.103976      0.016673
Li	      4.13289      6.30479     10.04040        -0.050694      0.021846      0.005423
Li	      8.32820      6.28524      6.13322         0.011538     -0.024175      0.045375
Li	      6.17818      8.42904      6.25133        -0.027531      0.054802     -0.059188
Li	      4.12849      6.33466      6.28229        -0.031904     -0.005675     -0.050429
Li	      4.02970      4.32858      8.13659        -0.044804      0.114473     -0.055490
Li	      6.09774      6.39667      8.13750        -0.079448      0.036528     -0.051229
Ti	      6.19511      4.28144      6.17341         0.003503      0.185691     -0.029008
Fe	      2.12541      8.31234      6.15064        -0.150782      0.046345      0.152412
Fe	      6.18722      8.27987     10.03833        -0.073313      0.107796      0.149644
Fe	      4.14369      4.15956      4.08939         0.065305     -0.007802     -0.012879
Co	     10.36831      6.28640      8.14599         0.000398     -0.083441     -0.101187
Co	      8.32628      4.22638      8.16703         0.042539      0.023984     -0.196465
Co	      8.31380      6.29443     10.18912        -0.068086      0.065087      0.082819
Cu	      2.14897      2.05075      4.05968         0.059467     -0.101906      0.075498
Cu	      6.18868      4.26571     10.21785         0.000706      0.063053      0.020728
O	      4.14869      6.28791      8.17401         0.033081      0.000187     -0.041838
O	      1.94474      2.24248      2.10687        -0.027409      0.080965      0.019048
O	      4.02374      4.37180      2.06967        -0.044248      0.051907      0.067943
O	      4.19003      2.17626      4.04759        -0.017357     -0.038037      0.027097
O	      6.19209      4.04286      4.17726         0.024730     -0.050438      0.027849
O	      6.31488      2.16660      6.19963        -0.238998      0.076293     -0.002108
O	      8.23080      4.09510      6.22335        -0.111242      0.182065      0.102145
O	      2.13409      4.36075      3.99017        -0.300379      0.093825      0.040401
O	      4.07569      6.27070      3.94923         0.003653      0.105934     -0.025396
O	      4.29242      4.17617      6.08402         0.143211     -0.014850     -0.018625
O	      6.30018      6.15306      5.99868        -0.055522     -0.208588      0.103022
O	      6.34192      4.08838      8.18847         0.049040     -0.069308     -0.083783
O	      8.44402      6.15459      8.22710         0.056744     -0.052009      0.059211
O	      2.06499      6.37055      6.00588        -0.000922     -0.263600     -0.079847
O	      4.04000      8.42157      6.00704         0.449985     -0.029519      0.036301
O	      6.21637      8.38786      8.18228         0.004662     -0.023170     -0.055810
O	      6.37581      6.31995     10.17671         0.001390     -0.216003     -0.025165
O	      8.21752      8.23595     10.21217         0.293045      0.030847     -0.133370
