# total energy = -211.26502644 eV
 
CRYSTAL
PRIMVEC
0.049255 6.138633 6.321931 
6.163954 0.049591 6.322023 
4.104259 4.087371 0.037701 
PRIMCOORD
36 1
Li	      6.17562      6.20746     12.55254        -0.002530      0.002217     -0.058940
Li	      4.09886      2.10362      2.13765         0.015996      0.070382     -0.060352
Li	      4.20351      6.19556     10.55246         0.046268     -0.019865      0.014294
Li	     10.23216      6.21050      8.48524         0.019320     -0.022729     -0.009092
Li	      6.17351      6.13216      4.30166        -0.007830     -0.040115      0.034391
Li	      6.14469      4.13147      6.34955        -0.040664      0.003571      0.082746
Li	      8.26531      6.21049     10.52025        -0.000732      0.013750     -0.023650
Li	      4.16010      6.13463      6.26011        -0.001357     -0.044087     -0.039856
Li	      8.29419      8.16893      8.52881         0.017361     -0.032714      0.038924
Ti	      2.22508      6.23172      8.44114        -0.052786      0.051788     -0.125640
Fe	      8.14028      2.15384      6.27129         0.154448     -0.004167      0.194247
Fe	      6.11699      8.19512      6.31703         0.102710      0.033233      0.043769
Fe	      6.17797      6.13303      8.50018        -0.006860      0.052991     -0.182097
Co	      2.10227      4.08652      2.13724         0.102690     -0.042793     -0.035557
Co	      4.11521      4.15207      4.21857        -0.129727     -0.186063      0.312381
Co	      4.15120      2.07109      6.32568        -0.013877      0.140530     -0.131516
Ni	      6.20648      8.18439     10.57650         0.030909     -0.049347     -0.086426
Ni	      4.10220      8.11953      4.23393         0.011422      0.091220     -0.083056
O	      2.09134      2.05016      2.03402        -0.000758     -0.088188      0.042097
O	      4.08730      4.09504      2.32488         0.015339      0.063586     -0.087935
O	      4.13111      2.19041      4.37819        -0.126843      0.303547      0.047408
O	      6.04476      4.10750      4.11683        -0.307548      0.152892     -0.016521
O	      6.13764      2.09714      6.29730        -0.087871      0.016014      0.077460
O	      8.24237      4.17511      6.53486         0.005412      0.032777     -0.013535
O	      2.18320      4.10042      4.16069         0.352649     -0.021230     -0.052252
O	      4.13041      6.00739      4.26143        -0.033321     -0.451284     -0.027879
O	      4.07025      4.01547      6.17903         0.022595     -0.004820      0.009937
O	      6.30028      6.21139      6.43149        -0.013730     -0.095280     -0.024862
O	      6.32791      4.15119      8.51637        -0.029889     -0.069522     -0.324164
O	      8.21257      6.05492      8.30816         0.067234      0.023673      0.065303
O	      2.04674      6.14255      6.49671         0.021137      0.047536      0.048047
O	      4.15674      8.16738      6.24016        -0.096109     -0.010936      0.320610
O	      4.07845      6.15563      8.46292        -0.043932      0.018452      0.042603
O	      6.20760      8.25403      8.38627        -0.002449      0.043556      0.043323
O	      6.20419      6.16536     10.42618        -0.010488      0.013507      0.099674
O	      8.24127      8.22939     10.66729         0.023808      0.007919     -0.133883
