# total energy = -212.52216243 eV
 
CRYSTAL
PRIMVEC
-0.071464 6.438642 6.064642 
6.294649 -0.059543 6.051170 
4.157729 4.245063 -0.000503 
PRIMCOORD
36 1
Li	      6.24295      8.51553     10.09734        -0.004267     -0.123879      0.004333
Li	      8.23794      4.35880      8.18243         0.068477      0.033747     -0.041312
Li	      6.18546      6.47451      4.09189         0.015071      0.036976     -0.031594
Li	      4.10943      4.38598      4.10494        -0.009164     -0.014818     -0.034923
Li	      8.32081      6.31451      6.07427         0.032293      0.002540      0.004445
Li	      0.01707      4.26906      4.00435        -0.040562      0.132675      0.067194
Li	      8.31846      6.27771     10.01940        -0.101247      0.005186      0.016448
Li	      8.33949      8.33743      8.07837        -0.019752     -0.021412      0.129822
Li	      6.44793      6.19198      8.05114         0.077770      0.037538      0.106015
Ti	      4.19774      2.19567      2.13301         0.106811      0.004505      0.538262
Fe	      8.25800      8.47079     12.04760        -0.184140     -0.000418     -0.050627
Fe	      8.23405     10.54180     10.05269         0.622697      0.008612      0.131658
Fe	     10.28978      6.46163      8.17877         0.138815     -0.440944     -0.265000
Co	      6.19118      6.36523     11.97199         0.033633     -0.041036      1.325164
Co	      6.23417      4.23766      2.02997         0.007783     -0.043725     -0.006570
Co	      2.17995      4.25407      5.99589        -0.143231     -0.069718     -0.181972
Co	      4.19858      6.40859      5.98446         0.014097      0.072982     -0.024663
Cu	      6.18147      4.29218      6.03582         0.177711     -0.168532     -0.032368
O	      2.12677      1.95704      2.01406         0.059004      0.000260     -0.037225
O	      4.26218      4.15273      1.99571         0.055967     -0.097152     -0.357049
O	      4.23949      1.96110      3.95373        -0.143381      0.206625     -0.489777
O	      6.33948      4.18726      3.99981        -0.285852      0.039975      0.026608
O	      6.34121      1.90239      6.17264         0.017432     -0.088618     -0.242279
O	      8.33911      4.08980      6.02158        -0.217196     -0.023993     -0.070115
O	      2.07549      4.27554      4.18394         0.086095     -0.001097      0.225800
O	      4.12685      6.42048      4.02691         0.066023      0.102406      0.332769
O	      4.21238      4.42845      6.06796        -0.000282      0.026822      0.000533
O	      6.18578      6.60658      6.09402        -0.053794      0.034099      0.044544
O	      6.28189      4.13670      7.97408        -0.004778      0.344409     -0.110572
O	      8.43417      6.30260      8.07514        -0.292084      0.075916     -0.059353
O	      2.00880      6.41390      6.14766         0.075190     -0.141258      0.030424
O	      3.99195      8.55831      6.13957         0.224074     -0.013678     -0.216296
O	      3.96710      6.54582      8.01848        -0.153013      0.126270     -0.058627
O	      6.08394      8.70618      7.95151        -0.080470      0.058969     -0.072529
O	      6.14755      6.34975     10.15389        -0.163604      0.080277     -0.522014
O	      8.26231      8.57433     10.11679         0.017875     -0.140510     -0.079152
