# total energy = -186.43185902 eV
 
CRYSTAL
PRIMVEC
4.145909 0.000109 4.146244 
-0.040008 8.271639 0.040147 
-4.142258 0.039895 4.142599 
PRIMCOORD
32 1
Li	      0.98409      1.03213      0.99744        -0.011404      0.000431     -0.012582
Li	      1.05602      5.19014      5.24543         0.013174     -0.002293      0.015257
Li	     -1.07525      1.05409      3.07645         0.001491     -0.002149      0.002212
Li	     -1.02388      5.20940      7.30979        -0.000513     -0.001306     -0.002122
Li	      1.02203      3.13098      7.26549         0.000017      0.003028     -0.000082
Li	      1.00149      7.24749      3.14215        -0.001092     -0.000396     -0.002839
Li	     -1.04980      3.13005      5.19250        -0.000715      0.001889     -0.000626
Li	      3.07384      7.24609      5.21334         0.000277      0.003141      0.000463
Mn	      1.03235      1.05308      5.18383         0.004675      0.006585     -0.005578
Mn	     -3.13170      5.20935      5.20258        -0.001264      0.000222     -0.003467
Mn	      1.02177      3.11165      3.12171        -0.001229     -0.006217      0.004747
Mn	     -1.06971      7.26709      5.21314        -0.001767     -0.000800     -0.000789
Ni	     -1.04769      1.07330      7.24600        -0.001980      0.001899      0.001813
Ni	     -1.05172      5.18911      3.14015        -0.000386      0.000159      0.000138
Ni	      1.00353      7.26714      7.28600        -0.000939     -0.000991      0.002671
Ni	      3.09440      3.11175      5.19497        -0.001363     -0.001753      0.000366
O	     -0.90431      3.14240      3.10389         0.040491     -0.124600      0.115375
O	     -1.05176      7.29807      7.13936        -0.115637     -0.123897     -0.042563
O	      1.03006      3.21162      1.16490         0.110454      0.008402      0.002194
O	      0.88755      7.36671      5.20439        -0.003781      0.011283     -0.111222
O	     -0.94864      0.93748      5.17083         0.014895     -0.020055     -0.112750
O	     -0.90213      5.19723      1.08843         0.037982      0.091645     -0.120116
O	      1.00378      1.08099      7.09579         0.122634      0.093002     -0.031312
O	      1.02359      5.05359      3.04143         0.112249     -0.019065     -0.016302
O	      2.94784      3.08041      3.13978        -0.041529      0.124070     -0.117574
O	     -1.08741      7.23588      3.28721         0.115098      0.125049      0.041009
O	      1.01296      3.01130      5.07897        -0.111172     -0.012598     -0.005759
O	     -3.02686      7.16751      5.22169         0.005122     -0.011552      0.110893
O	      2.94503      1.02580      5.15524        -0.036534     -0.094633      0.121259
O	     -1.15075      5.32502      5.21526        -0.014782      0.021638      0.113226
O	      1.01955      1.16933      3.20222        -0.113006      0.021137      0.017083
O	     -3.10336      5.18135      3.29020        -0.119467     -0.091280      0.036977
