# total energy = -212.60991744 eV
 
CRYSTAL
PRIMVEC
-0.017214 6.334669 6.323729 
6.094603 0.019212 6.287617 
4.062354 4.198187 0.013495 
PRIMCOORD
36 1
Li	      4.04593      8.44162      8.39823         0.004989      0.005321      0.017992
Li	      4.00693      4.30535      4.26817        -0.016013      0.064002      0.015865
Li	      8.01197      6.41608      6.43294         0.035262     -0.001964      0.007115
Li	      5.98718      4.33714      6.44790        -0.016099     -0.016580     -0.010884
Li	      0.01481      4.13863      4.13242         0.032891     -0.099414      0.019696
Li	      8.17386      6.31041     10.37543         0.017265      0.016548      0.037160
Li	      4.09544      6.32543      6.22434        -0.061186     -0.014785     -0.136001
Li	      4.15117      4.18289      8.34913        -0.042148      0.033349      0.004164
Li	      6.15875      6.17530      8.33557        -0.017106     -0.019484      0.117558
Ti	      2.05388      6.33340      8.38816         0.182109     -0.175659     -0.074746
Fe	      4.03651     10.49741      6.34266         0.037206      0.068336     -0.092633
Fe	      4.05021      6.34556     10.50155         0.054372      0.083978      0.149686
Fe	      6.03392      2.11594      4.22946        -0.138136      0.020197     -0.007735
Co	      2.05220      8.44011      6.32384         0.050064      0.027983     -0.144138
Co	      8.09302      4.23109      8.42488        -0.102834      0.111653      0.035209
Co	      6.07231      6.32321      4.29818        -0.226510      0.310959      0.211554
Co	      2.10760      4.11116      6.25332         0.001704      0.089599     -0.091973
Ni	     10.10130      6.40436      8.43966        -0.039112     -0.088210      0.074118
O	      2.03967      2.11455      1.96201         0.074033     -0.025208      0.389885
O	      4.07402      4.24684      2.04388         0.014394     -0.076924      0.001200
O	      3.99635      2.01793      4.25944         0.135630     -0.024393      0.061345
O	      6.07654      4.23077      4.12510        -0.033781      0.315114      0.022418
O	      6.21693      2.06435      6.23935         0.061798      0.063232      0.071188
O	      8.14360      4.06082      6.36762        -0.036623     -0.078843     -0.110329
O	      2.04247      4.06980      4.10884         0.110459     -0.499409      0.361780
O	      4.22495      6.30975      4.17205         0.070996     -0.040635      0.094917
O	      3.88455      4.25539      6.34305        -0.120284     -0.015267      0.025223
O	      6.03730      6.39337      6.29207        -0.000699     -0.073577     -0.959505
O	      6.19925      4.20408      8.39549         0.082788      0.155307     -0.021229
O	      8.13353      6.13443      8.41932        -0.211302     -0.108057     -0.037518
O	      2.01241      6.44667      6.40727         0.027823      0.034514      0.107623
O	      4.07372      8.53291      6.31192         0.026432     -0.091425      0.004843
O	      3.93012      6.36283      8.52685        -0.158296      0.005681     -0.165740
O	      6.05032      8.62649      8.49972         0.007098      0.187395     -0.057094
O	      6.02169      6.46588     10.57524         0.110490     -0.086826      0.002890
O	      8.04534      8.53550     10.67277         0.082327     -0.056507      0.076096
