# total energy = -215.50312901 eV
 
CRYSTAL
PRIMVEC
0.024539 6.261020 6.131744 
6.267282 0.002042 6.154820 
4.184532 4.195963 -0.005969 
PRIMCOORD
36 1
Li	      2.17018      8.21196      6.15406         0.049514     -0.000778     -0.012412
Li	      2.13647      6.24951      8.11363        -0.007431      0.012535     -0.026244
Li	      6.18184      6.34133      4.14957        -0.000514      0.019369      0.011019
Li	      4.26469      4.24127      4.15552         0.007837     -0.007307      0.159671
Li	      6.13966      4.18626      6.13344        -0.150148     -0.052737      0.053147
Li	      2.21714      6.23996      4.14901         0.023610     -0.015746      0.046926
Li	      2.17803      4.24903      6.06548         0.149524     -0.028218     -0.043382
Li	      4.07885      6.20089      6.06792        -0.061870     -0.101423      0.016633
Li	      4.17162      4.16421      8.10012         0.002305     -0.027940     -0.119767
Ti	      8.19589      4.15143      4.13101        -0.207518     -0.100141      0.228833
Fe	      0.21998      6.26557      6.10323        -0.171194     -0.081002      0.018717
Fe	      4.19323      8.34407      8.12014        -0.012892      0.083690      0.022952
Fe	      2.08495      4.18195      2.14007        -0.002279      0.066978     -0.262296
Co	      6.28166      6.31880      8.07193        -0.215790      0.135445      0.050907
Co	      6.35230      8.34636     10.26088         0.093116      0.093476     -0.268205
Co	      0.03355      2.10664      2.07913         0.077286      0.034930      0.027284
Co	      4.17205      2.17191      6.12546         0.160824     -0.496032      0.392751
Co	      4.20439      8.33236      4.10568         0.047074     -0.014488     -0.018251
O	      2.07840      2.19121      2.02082        -0.032145     -0.045520      0.016471
O	      4.13728      4.23219      2.04019         0.011063      0.036144      0.017806
O	      4.23559      1.99570      4.06795        -0.090194      0.054691      0.490235
O	      6.37150      4.19242      4.09243         0.285743     -0.120203      0.038187
O	      6.27455      2.04147      6.22394        -0.717877      0.194913      0.118149
O	      8.42191      4.40801      6.10816         0.070171     -0.313976     -0.269536
O	      1.94021      4.18379      4.05225        -0.140279      0.000283      0.117712
O	      4.19106      6.42081      3.96919        -0.020655     -0.015686     -0.154435
O	      4.17894      3.97861      6.12315         0.001980      0.487716     -0.075866
O	      6.28231      6.19736      6.28410         0.749601      0.111531      0.017873
O	      6.31354      4.09168      8.32368         0.012134     -0.036032      0.036430
O	      8.47239      6.24135      8.14053        -0.091222      0.018218     -0.593587
O	      2.07122      6.26855      6.12802         0.169212      0.011607     -0.009732
O	      4.18278      8.44388      6.12374        -0.038821     -0.026049     -0.120048
O	      4.22780      6.34824      8.26679         0.062191     -0.000245      0.080027
O	      6.20501      8.29774      8.23968        -0.074775     -0.126933      0.055271
O	      6.23006      6.14288     10.17618         0.017523      0.094596     -0.081371
O	      8.45377      8.50502     10.25161         0.044896      0.154334      0.038133
