# total energy = -201.41737093 eV
 
CRYSTAL
PRIMVEC
-0.013378 6.232269 6.208414 
6.199656 -0.002541 6.197709 
4.148167 4.162692 -0.016799 
PRIMCOORD
36 1
Li	      6.16808      0.05299      6.21584        -0.011553      0.015137      0.103325
Li	      4.13693      0.02061      4.14331         0.048781     -0.009217      0.011453
Li	      4.13188      6.21222      2.08774         0.003433     -0.051097     -0.029595
Li	      8.24275      4.18728      8.29498        -0.040803      0.015331     -0.045142
Li	      6.12183      6.29599      4.10254        -0.095845      0.069487     -0.074204
Li	      4.15660      2.07583      6.19916        -0.012180     -0.036565      0.084819
Li	      0.05256      4.08279      4.09522        -0.023479     -0.067721     -0.052217
Li	      4.14403      6.18850      6.15490         0.030440      0.020353      0.032713
Li	      4.15587      4.14261      8.28051         0.017101     -0.007731     -0.034084
Ti	      8.32527      2.20007      6.18514         0.119339      0.235778     -0.065661
Fe	      4.12117      2.09230      2.08767         0.008104      0.035139     -0.057648
Fe	      2.12722      6.16424      4.13296        -0.278112      0.205021     -0.085022
Fe	      6.20015      6.15681      8.24246         0.007809      0.214112      0.135049
Cu	      6.21132      2.08857      4.14292         0.069944     -0.201134     -0.056916
Ni	      2.07916      6.21945      8.27675         0.081975     -0.057251     -0.085381
Ni	      4.13301      4.15915      4.12528        -0.090859      0.299669      0.286760
Ni	      6.17048      4.16829      6.17953         0.029511      0.102792      0.118925
Ni	      2.07657      4.15849      6.16558        -0.070282     -0.064103      0.141117
O	      2.11320      2.01094      1.97533        -0.094998      0.149035     -0.083928
O	      4.19598      4.08528      2.20183        -0.015800      0.041757     -0.844512
O	      4.20503      2.17866      4.10431        -0.122548     -0.496909     -0.002208
O	      6.21373      4.06921      4.10195         0.013728      0.174983      0.058119
O	      6.28131      2.09630      6.12192         0.036297     -0.070186      0.207910
O	      8.25322      4.05365      6.18664         0.055723     -0.277410     -0.017816
O	      2.04794      4.18678      4.16808         0.087465     -0.201558     -0.078471
O	      4.06985      6.13364      4.08029         0.241726      0.326059     -0.086691
O	      4.13338      4.15858      6.00560         0.008252     -0.065199      0.733091
O	      6.21904      6.26090      6.38269        -0.016341      0.027248     -0.376628
O	      6.13932      4.30285      8.23091        -0.000687     -0.443692      0.056756
O	      8.12605      6.24458      8.34118         0.173989      0.023308     -0.122687
O	      2.02973      6.26090      6.18372         0.039336      0.083871     -0.008252
O	      4.05935      8.35587      6.24939        -0.160614     -0.016826     -0.071854
O	      4.20975      6.31207      8.29640        -0.141700     -0.049272      0.008191
O	      6.17476      8.28881      8.28114         0.030130      0.022167     -0.026238
O	      6.22571      6.29699     10.17544        -0.048704      0.013279      0.212530
O	      8.22409      8.23011     10.43371         0.121421      0.041344      0.114394
