# total energy = -201.20058285 eV
 
CRYSTAL
PRIMVEC
-0.013944 6.295579 6.304097 
6.127547 0.010989 6.279405 
4.096485 4.192152 -0.004220 
PRIMCOORD
36 1
Li	      6.13186      0.06821      6.31160         0.068493      0.016781      0.047781
Li	      6.09244      4.24093      2.14158        -0.035180      0.032045     -0.059229
Li	      6.11289      2.22467      4.26520        -0.059648      0.004463     -0.022538
Li	      0.05886      2.02732      2.08272         0.029715     -0.069916      0.043716
Li	      6.10651      6.22538      4.22629        -0.061561     -0.011219      0.006900
Li	      4.14848      4.23023      4.24573         0.019904      0.041498      0.032625
Li	      6.12642      4.13399      6.14020        -0.018809     -0.030677     -0.034384
Li	      2.05621      4.20978      6.24751         0.004372      0.019196      0.057678
Li	      4.04970      6.28838      6.20682        -0.051305      0.008111      0.007655
Ti	      6.11387      6.28685      8.20855        -0.162475      0.347100     -0.350570
Fe	      4.05703      2.18871      2.08659         0.169037     -0.073882      0.172105
Fe	      2.05953      6.24587      4.32998         0.123706      0.210785     -0.026838
Fe	      4.06038      4.22503      8.27078        -0.086491     -0.104230      0.028615
Cu	      8.13725      4.21405      4.22790         0.213249      0.033830     -0.060203
Cu	      2.07372      4.15660      2.08657        -0.067093      0.125693      0.073975
Cu	      4.10617      8.36261      4.28995         0.127930     -0.152513      0.157997
Ni	      8.10841      2.11131      6.29321        -0.081595     -0.103357      0.084816
Ni	      4.16334      2.09739      6.19977         0.063832      0.012418     -0.074072
O	      1.99083      6.38910      6.20554        -0.066950      0.009134      0.421041
O	      3.97578      8.38767      6.41904         0.062658      0.041201     -0.445520
O	      2.08030      2.18674      2.04931        -0.119110     -0.079072      0.095323
O	      4.03051      4.10275      2.17030         0.066155      0.261699      0.067936
O	      4.10390      1.97338      4.11580        -0.009421      0.122394     -0.066506
O	      6.26444      4.21721      4.14337         0.100018     -0.034852      0.006743
O	      6.14872      2.09705      6.29726         0.024505      0.032809     -0.000483
O	      8.17795      4.21328      6.25833        -0.037774     -0.078772      0.315345
O	      1.98090      4.29210      4.23795        -0.211756     -0.192161     -0.245053
O	      3.97904      6.40281      4.22270         0.380329      0.024187     -0.131203
O	      4.10566      4.11102      6.38231         0.024370      0.055048     -0.093912
O	      6.20734      6.29278      6.38639        -0.066005     -0.074799      0.344779
O	      6.11970      4.31738      8.41859        -0.002570     -0.149293      0.193333
O	      8.11310      6.32947      8.45945        -0.108424      0.011008     -0.136349
O	      4.15899      6.26081      8.35689         0.186000     -0.060989     -0.073148
O	      6.12526      8.25943      8.39141         0.034758     -0.152760     -0.010372
O	      6.12161      6.19291     10.43028        -0.650166     -0.082178     -0.149030
O	      8.20052      8.41996     10.43159         0.197300      0.041271     -0.178956
