# total energy = -201.45308795 eV
 
CRYSTAL
PRIMVEC
-0.064670 6.058929 6.210913 
6.472605 -0.014083 6.161134 
4.346208 4.037697 -0.040481 
PRIMCOORD
36 1
Li	      2.17268      2.04897      0.02638         0.000327     -0.003785      0.105231
Li	      2.13051      0.11557      2.05277        -0.094608      0.047461      0.018039
Li	      4.22905      2.00315      2.01736        -0.149870      0.016797     -0.009180
Li	      6.44686      2.02680      4.15035        -0.057452      0.022490     -0.002621
Li	      0.06635      1.96538      2.05930         0.137726     -0.025331      0.019355
Li	      2.20789      4.00173      1.98789         0.097970     -0.035336      0.024001
Li	      2.14043      1.94674      4.02643         0.045930     -0.018810     -0.101938
Li	      4.34585      1.97461      6.18425         0.005108      0.058600     -0.007466
Li	      4.27316      6.06615      6.15714         0.026478      0.010125     -0.068056
Ti	      6.42343      8.04883      6.18822        -0.065788     -0.171057     -0.041046
Fe	      4.35597      3.96246      3.99801        -0.188067      0.133567      0.185075
Fe	      4.34298      7.98862      4.08215         0.101390     -0.128252      0.022224
Fe	      4.26481      4.03146      8.21317        -0.027294     -0.048097     -0.055942
Cu	      6.47791      0.06707      6.21875        -0.000859      0.004312      0.078989
Cu	      4.32978      0.06993      4.11645        -0.108605      0.081647     -0.083404
Cu	      6.51700      4.00565      6.15882         0.025455     -0.270329     -0.019883
Cu	      6.45506      6.05693      8.26172        -0.000447      0.093887     -0.088112
Ni	      2.13658      6.05693      4.12804         0.186402      0.013597     -0.033461
O	      8.48252      6.09459      8.24087         0.026124     -0.074652     -0.055578
O	      4.34571      6.04049      8.40252         0.068057      0.102893      0.126901
O	      6.58893      5.98241     10.25350        -0.009370      0.173138      0.145145
O	      2.14691      2.05062      2.00409         0.025833     -0.016071      0.024499
O	      4.31361      4.02125      2.11006        -0.043868     -0.019195     -0.360190
O	      4.26506      2.00728      4.08386        -0.002855     -0.465463      0.066629
O	      6.28470      4.00689      4.23716         0.115346     -0.046206      0.195053
O	      6.56029      2.04585      6.23381        -0.024969      0.289870     -0.189802
O	      8.85224      4.07485      5.95107         0.131798      0.004036     -0.043056
O	      2.11406      3.98395      4.21171        -0.062926     -0.067651      0.152867
O	      4.19634      6.03639      4.09116        -0.044260      0.042527      0.035892
O	      4.04890      4.06644      6.17684        -0.183031     -0.003538      0.032442
O	      6.37836      6.05202      6.25454        -0.049476      0.083893     -0.009922
O	      6.35396      4.06607      8.19156         0.000393     -0.086002     -0.180995
O	      1.98279      5.96545      6.20105        -0.105948      0.066160      0.070254
O	      4.42500      8.09554      6.07672         0.176629     -0.136043      0.061940
O	      6.54630      8.04502      8.16040         0.032631      0.117557     -0.067701
O	      8.75587      8.17081     10.20626         0.016096      0.253258      0.053819
