# total energy = -201.29482542 eV
 
CRYSTAL
PRIMVEC
0.024465 6.161555 6.290616 
6.316403 -0.028532 6.343618 
4.198345 4.130554 -0.006384 
PRIMCOORD
36 1
Li	      4.24124     10.16724      6.27135        -0.044299      0.014401      0.008735
Li	      8.51362      8.21165     12.50331         0.033194     -0.017673     -0.043692
Li	      4.14970      2.12759      2.02415        -0.043213      0.002770     -0.025033
Li	      6.37984      2.06131      4.30345         0.022959     -0.050679      0.012453
Li	      2.20132      4.05319      2.22373        -0.030573      0.020896      0.000214
Li	      4.07921      4.15001      4.16907        -0.016280     -0.028636     -0.035862
Li	      4.28451      8.20378      4.34669         0.011362      0.017407     -0.032408
Li	      2.14739      6.07677      4.34248        -0.002994     -0.025631      0.020886
Li	      1.97582      4.15764      6.15764        -0.019518      0.006206      0.004347
Ti	      6.34481      6.23573      8.54368         0.054648     -0.069355      0.508847
Fe	      6.21637      4.11982      2.02327         0.035048     -0.103376      0.057197
Fe	      4.25255      2.03889      6.23409         0.021263     -0.096713      0.051717
Fe	      8.46279      8.21015      8.50202         0.067397     -0.105120      0.136900
Cu	      8.39762      4.09874      4.25035         0.410313     -0.212312      0.054571
Cu	      4.23318      6.14768      2.11029        -0.080189      0.047186      0.077968
Cu	      2.09715      2.10780      4.19523        -0.029404      0.200560     -0.093451
Cu	      6.31921      4.08505      6.29383         0.316730     -0.128960     -0.272097
Cu	      4.15606      6.25937      6.20986         0.072881     -0.302505      0.123813
O	      2.20685      6.15788      6.38848        -0.091947     -0.010414      0.185721
O	      4.18862      8.15346      6.33673         0.014159      0.029161      0.016998
O	      6.29251      6.14292     10.38654         0.043007      0.035685     -0.409076
O	      8.44436      8.26839     10.42508        -0.040796      0.034823     -0.081318
O	      2.02167      2.00135      2.20687         0.222570     -0.018207     -0.084819
O	      4.29312      4.18531      2.06851        -0.143366     -0.149074     -0.023011
O	      4.13711      1.98922      4.26637        -0.054637      0.075718      0.035796
O	      6.40420      4.15800      4.20983        -0.166426      0.065597     -0.188168
O	      6.22201      2.10611      6.35081        -0.041242      0.021249      0.079117
O	      8.34399      4.15782      6.23855        -0.117092      0.127195      0.301891
O	      2.12762      4.03343      4.20361        -0.028368      0.067851      0.003757
O	      4.30499      6.16711      4.15554        -0.054745      0.062067     -0.051849
O	      4.31059      4.09722      6.40114        -0.121959      0.156364      0.049682
O	      6.31444      6.10687      6.38184         0.095822      0.059597      0.057658
O	      6.28682      4.13657      8.31874        -0.080880      0.222244      0.066006
O	      8.32088      6.18208      8.37279        -0.196013      0.000511     -0.149430
O	      4.28503      6.12356      8.48611        -0.044290      0.095632     -0.380185
O	      6.38887      8.15600      8.41184         0.026874     -0.044466      0.016123
