# total energy = -200.98050719 eV
 
CRYSTAL
PRIMVEC
0.011432 6.214500 6.200168 
6.213052 0.016472 6.195012 
4.136315 4.133898 0.017015 
PRIMCOORD
36 1
Li	      4.10340      2.10513      2.09413        -0.031865     -0.050720     -0.039757
Li	      4.12333      0.10420      4.16133        -0.071879      0.082305     -0.025981
Li	      6.13659      2.09844      4.14656         0.021645      0.029390     -0.027782
Li	      4.18562      6.16520      2.12376         0.006284      0.019711     -0.007971
Li	      2.07482      2.12954      4.14203        -0.034255     -0.058981     -0.031322
Li	      6.20644      4.17288      6.16914         0.068108      0.019594     -0.023262
Li	      0.07287      4.12226      4.14994         0.049638     -0.020378     -0.026876
Li	      2.13788      6.09158      4.17127        -0.032317      0.047301      0.023408
Li	      2.09361      4.11185      6.12341        -0.017512      0.013645      0.048425
Ti	      8.35713      8.25103      8.40377         0.057155     -0.006701      0.444845
Fe	      8.24328      2.11928      6.13478        -0.083906     -0.039223     -0.105546
Fe	      6.11430      4.18253      2.12986         0.216489     -0.091163     -0.143061
Fe	      6.20298      6.26466      8.35629        -0.061560      0.083696      0.038684
Ni	      6.22776      6.19868     12.29003         0.071996      0.011155     -0.095331
Ni	      2.08578      4.09526      2.12005        -0.086059     -0.034355     -0.058718
Ni	      4.11587      4.14181      4.16126         0.158349     -0.053517     -0.042450
Ni	      4.15721      2.10815      6.16558         0.047559     -0.130263      0.034961
Ni	      4.17416      6.20266      6.16097        -0.001855      0.111099      0.072808
O	      2.06042      2.02734      1.96765         0.002493      0.082708      0.008763
O	      4.17515      4.09441      1.99817        -0.231910      0.028261     -0.006359
O	      4.11323      2.23366      4.24694        -0.008809     -0.153470     -0.122865
O	      6.07832      4.17743      3.99402         0.053053     -0.046815      0.535826
O	      6.31099      2.03276      6.13781        -0.388606      0.022595      0.069783
O	      8.30163      4.12978      6.22340        -0.019782      0.177070     -0.061219
O	      2.21517      4.13643      4.09695        -0.112781     -0.029167      0.125036
O	      4.14731      6.02973      4.21586         0.007026      0.219950     -0.085877
O	      4.19971      4.14692      6.32082        -0.037769      0.060083     -0.013545
O	      6.21208      6.24562      6.43818         0.009853     -0.023772     -0.366986
O	      6.17349      4.23061      8.32886        -0.198940     -0.090224     -0.069383
O	      8.26288      6.27615      8.19629         0.145167      0.123905      0.073911
O	      2.07896      6.28039      6.30830         0.018855     -0.197286     -0.327240
O	      3.97775      8.26339      6.12261         0.348920     -0.025986      0.070941
O	      4.12222      6.14213      8.24576         0.002616     -0.076196     -0.033447
O	      6.31660      8.29235      8.28414         0.102581      0.014153     -0.022515
O	      6.20846      6.24580     10.19914         0.005986     -0.023282      0.476947
O	      8.28658      8.27128     10.26959         0.026032      0.004876     -0.286843
