# total energy = -208.63505255 eV
 
CRYSTAL
PRIMVEC
0.002666 6.256247 6.175487 
6.220705 -0.005108 6.183401 
4.144802 4.173849 -0.001155 
PRIMCOORD
36 1
Li	      2.07882      2.09055      0.05856        -0.045024      0.005686      0.030307
Li	      2.04443      0.00947      2.03513         0.025204     -0.001024     -0.033301
Li	      8.30304      4.16818      8.17974        -0.041870      0.041825     -0.045563
Li	      4.21015      4.10508      4.18686         0.046031      0.008110      0.063448
Li	      8.22055      6.23427      6.18982        -0.056056      0.018113      0.062088
Li	      6.19760      4.27448      6.16007        -0.003930      0.052641      0.007034
Li	      6.20068      8.25871      6.15305         0.055464     -0.057815      0.022110
Li	      4.27236      6.25041      6.22728         0.065221     -0.052562      0.032279
Li	      6.22199      6.25929      8.06637         0.028503     -0.041114     -0.097331
Ti	      4.09015      4.20690      8.06910         0.067078      0.014130     -0.805756
Fe	      8.22133      4.21129      4.16364         0.056704     -0.063665     -0.028196
Fe	      0.05325      2.03240      1.96760        -0.171626      0.186581      0.013680
Fe	      4.16530      8.33761      4.18699        -0.109809      0.062026     -0.093695
Fe	      2.10477      6.17360      4.19484        -0.083975      0.131676     -0.095650
Co	      6.23217      2.09044      4.14297        -0.042342      0.042354      0.108301
Cu	      4.12995      2.14845      1.99003        -0.029428      0.007196     -0.065427
Ni	      6.22247      0.01686      6.19222        -0.058839      0.042918      0.035132
Ni	      6.20285      6.29917      4.17180         0.093809     -0.193419      0.133717
O	      6.25044      6.24368      6.08782         0.018507      0.004831      0.225520
O	      1.98917      2.09040      2.16324         0.462901      0.014798     -0.176299
O	      4.13673      4.27945      2.04266        -0.017400     -0.459655      0.154626
O	      4.26833      2.03470      3.96061        -0.002126      0.126658      0.046934
O	      6.29336      4.02206      4.17256        -0.162215      0.052304     -0.003724
O	      6.22134      2.00466      6.13423        -0.011608      0.064279     -0.145741
O	      8.46996      4.19334      6.08499        -0.117287     -0.008129      0.195515
O	      1.96678      4.21337      4.10940         0.029079      0.015739     -0.029048
O	      4.09607      6.32889      4.12617         0.063974     -0.018473     -0.020698
O	      4.11270      4.17401      6.26955        -0.015005      0.031247      0.631907
O	      6.11212      4.07104      8.32685        -0.024397      0.110661     -0.002140
O	      8.38851      6.35062      8.33499        -0.133719      0.049568     -0.044380
O	      1.91200      6.26299      6.10626         0.148961      0.026395      0.148467
O	      4.11605      8.44464      6.19142        -0.006357     -0.095564     -0.012031
O	      4.17983      6.13348      8.30981        -0.042778      0.061103     -0.084436
O	      6.30386      8.32046      8.39204        -0.107331      0.006913      0.003513
O	      6.23791      6.29552     10.29787         0.030545     -0.103210     -0.150240
O	      8.24378      8.34260     10.28222         0.091142     -0.083123      0.019078
