# total energy = -209.58600750 eV
 
CRYSTAL
PRIMVEC
-0.023804 6.179473 6.224078 
6.275182 -0.036581 6.236722 
4.176574 4.120773 -0.016829 
PRIMCOORD
36 1
Li	      6.20753      4.17725      2.12469        -0.012236      0.027801      0.047951
Li	      4.15262      2.06775      2.12482        -0.020464      0.015142      0.034921
Li	      6.22889      2.04387      4.13784        -0.060737      0.039972      0.029657
Li	      0.06948      2.03239      2.06386         0.044963     -0.013150     -0.031037
Li	      2.15779      1.98287      4.04142         0.039623     -0.046202     -0.087505
Li	      4.17603      2.06976      6.17476         0.022191     -0.031240     -0.099806
Li	      6.23716      4.05989      6.18017         0.035220     -0.042487     -0.044222
Li	      6.24360      4.10102     10.35752         0.011103     -0.031561      0.027038
Li	      2.13833      4.10242      6.24222        -0.019727     -0.008398      0.013020
Ti	      4.28308      6.19397      6.14696         0.167739      0.134566     -0.240032
Fe	      6.26115      6.14627     12.45419         0.036492     -0.053745      0.054693
Fe	      8.30244      2.02327      6.22376        -0.045980      0.065045      0.276440
Fe	      2.06129      4.09504      2.10793        -0.067141     -0.002841     -0.187779
Fe	      4.29726      3.99531      4.13557         0.105806     -0.066631     -0.249469
Co	      6.22818      6.17463      8.35575        -0.185722      0.063898     -0.021143
Cu	      8.36546      6.15763     10.37104         0.043137     -0.005097      0.166960
Cu	      8.33416      8.17830      8.30403         0.081610      0.190258     -0.015714
Ni	      8.25764      4.15793      4.12248        -0.167889      0.170310      0.036330
O	      6.35754      8.01261      8.30892        -0.057419     -0.160407      0.013824
O	      2.04316      2.15963      1.97319        -0.016673     -0.015187      0.169350
O	      4.10150      4.13147      2.02756         0.009568      0.035192     -0.006562
O	      4.12619      2.09730      4.16003        -0.017814     -0.121079     -0.015465
O	      6.22997      4.08849      4.10082         0.077447      0.002181     -0.010737
O	      6.33196      1.90810      6.23692        -0.133759      0.099265      0.017837
O	      8.43149      4.05118      6.23163        -0.102785      0.088672      0.185986
O	      2.20864      4.23186      4.06788        -0.183596      0.070272      0.031997
O	      4.31866      6.13650      4.27648        -0.002881      0.144708      0.285325
O	      4.16876      4.22286      6.13172        -0.023623      0.009463      0.527520
O	      6.16134      6.18821      6.42439        -0.131486     -0.019001      0.125233
O	      6.23707      4.26234      8.31132         0.078002     -0.047356      0.028320
O	      8.16485      6.15272      8.35982        -0.032413     -0.141680     -0.027876
O	      2.08528      6.19210      6.23390         0.089780     -0.123137      0.031351
O	      4.10058      8.18737      6.21719         0.113563     -0.091963     -0.033076
O	      4.26438      6.09889      8.27141         0.179485      0.015250     -0.150273
O	      6.08858      6.13255     10.31452         0.122782     -0.029119     -0.192688
O	      8.33902      8.15555     10.48860         0.023833     -0.121710     -0.690371
