# total energy = -186.89682652 eV
 
CRYSTAL
PRIMVEC
4.151059 0.000127 4.150971 
-0.000042 8.250597 0.000313 
-4.150851 0.000172 4.150762 
PRIMCOORD
32 1
Li	      1.00690      1.03102      1.01141        -0.012115     -0.001220     -0.016772
Li	      1.08707      5.15516      5.23740        -0.001580      0.001232     -0.002303
Li	     -1.08554      1.03016      3.06492        -0.000027      0.001445     -0.000283
Li	     -1.00476      5.15681      7.29136         0.011819     -0.001053      0.015382
Li	     -3.13831      3.09278      3.14544        -0.016340      0.001584      0.011776
Li	      1.08747      7.21755      3.06545        -0.001713      0.000722     -0.001273
Li	     -1.08493      3.09522      5.23768         0.000473     -0.001084     -0.001614
Li	      3.13974      7.21893      5.15857         0.018275      0.001008     -0.013436
Mn	      1.03511      1.03198      5.18492         0.006733      0.002046      0.007435
Mn	     -1.03391      5.15767      3.11632        -0.005921     -0.002030     -0.008437
Mn	      1.03463      3.09491      3.11625         0.008998     -0.000643     -0.006951
Mn	     -1.03354      7.21973      5.18519        -0.007646      0.002076      0.007204
Ni	     -3.10599      5.15741      5.19490         0.004856      0.000336      0.007440
Ni	     -1.04364      1.03186      7.25713        -0.006072      0.001741     -0.005153
Ni	     -3.10638      7.21985      3.10681         0.007686      0.000056     -0.005809
Ni	      3.10723      3.09505      5.19454        -0.006768     -0.002352      0.008638
O	     -0.93631      3.21785      3.13340         0.012715      0.015879      0.102669
O	     -1.00913      7.20162      7.10038        -0.118470     -0.083914     -0.040473
O	      1.01022      3.07702      1.20087         0.119223     -0.088204      0.041046
O	      0.93742      7.34275      5.16762        -0.012305      0.018194     -0.099563
O	     -0.93546      0.90900      5.16819         0.011139     -0.016542     -0.104561
O	     -1.00952      5.17524      1.20126        -0.118250      0.085165      0.040761
O	      1.01061      1.04903      7.10006         0.118807      0.091846     -0.040871
O	      0.93652      5.03487      3.13336        -0.011036     -0.019655      0.103491
O	      2.94970      3.11240      3.14018        -0.040336      0.085663     -0.115545
O	     -1.01718      7.09768      3.21465         0.105534     -0.020660      0.011892
O	      1.01818      2.97213      5.08680        -0.105565     -0.018342     -0.011435
O	     -2.94849      7.23716      5.16145         0.040135      0.090276      0.114659
O	      2.95040      1.01451      5.16067        -0.041311     -0.087977      0.117528
O	     -1.01646      5.27982      5.08691         0.102073      0.018498     -0.009414
O	      1.01785      1.15508      3.21423        -0.103848      0.016366      0.010101
O	     -2.94919      5.13986      3.14051         0.040838     -0.090458     -0.116128
