# total energy = -209.06684854 eV
 
CRYSTAL
PRIMVEC
0.001005 6.274739 6.279539 
6.186596 -0.000468 6.280954 
4.128499 4.188258 -0.004362 
PRIMCOORD
36 1
Li	      4.21145     10.38526      6.30106         0.033828     -0.062926      0.052488
Li	      6.15866      4.15320      2.19531        -0.006763     -0.029244      0.088452
Li	      4.14337      2.13253      2.12549         0.021904      0.024489     -0.036212
Li	      4.15274      6.40352     10.32503        -0.013975      0.074306     -0.077266
Li	      6.15473      8.31819     10.40640         0.037439     -0.045025     -0.039894
Li	      4.16171      6.23862      2.12439         0.015596     -0.011765      0.013079
Li	      2.11908      2.03128      4.10711        -0.001408     -0.022855     -0.074957
Li	      6.07807      8.40953      6.33736        -0.017051      0.008641      0.052600
Li	      6.15887      6.31644      8.42070         0.003847      0.055271     -0.010269
Ti	      6.18104      4.21489      6.15386        -0.052575     -0.005280     -0.358534
Fe	      2.10905      8.29205      6.33994        -0.181806      0.033150     -0.056935
Fe	      2.16276      4.14521      2.12914        -0.238994      0.073653      0.031873
Fe	      4.13632      2.08852      6.13606         0.063206      0.036570      0.233765
Fe	      8.18838      8.43548      8.43082         0.124570     -0.155692      0.031694
Co	      8.20389      6.27998     10.45645         0.100534     -0.029637      0.027402
Ni	      6.18695      4.19122     10.47332         0.028061     -0.057289      0.018256
Ni	      4.12341      4.18922      4.11373         0.026414      0.030501      0.112112
Ni	      4.12806      6.30690      6.30289         0.069132     -0.062712      0.057402
O	      2.04356      2.17978      2.01721        -0.024075     -0.067669      0.079012
O	      4.04991      4.19274      2.10485         0.277263      0.016947     -0.232080
O	      4.13841      2.12414      4.26340         0.001908     -0.138677     -0.292697
O	      6.17113      4.21828      4.30288         0.146908     -0.000088      0.376417
O	      6.17576      2.22847      6.28667         0.037758      0.072979      0.000985
O	      8.17324      4.21626      6.35263        -0.026988     -0.029846     -0.060228
O	      2.05207      4.33408      4.11249        -0.098620      0.122290      0.047660
O	      3.95200      6.26137      4.23832        -0.151770      0.110126     -0.100701
O	      4.19305      4.13205      6.30664         0.094629     -0.081908      0.043363
O	      6.25698      6.16916      6.27812         0.024083     -0.125944      0.008929
O	      6.08003      4.18446      8.33209         0.109810      0.035053     -0.088756
O	      8.25325      6.32061      8.48519        -0.013374     -0.072644      0.089717
O	      2.07133      6.31898      6.09403        -0.141824     -0.096607     -0.128623
O	      4.05814      8.32859      6.25904         0.122607      0.139828      0.090794
O	      4.11672      6.11679      8.35762         0.009611      0.233357      0.069133
O	      6.38648      8.38597      8.36174        -0.306425     -0.012792     -0.012276
O	      6.37654      6.22790     10.48474         0.014213      0.082500      0.022676
O	      8.26131      8.22318     10.49001        -0.087673     -0.041061      0.021619
