# total energy = -211.45052801 eV
 
CRYSTAL
PRIMVEC
0.051662 6.200534 6.190879 
6.246700 0.027373 6.214960 
4.166245 4.151569 0.016295 
PRIMCOORD
36 1
Li	      4.15278      4.16014      0.08282         0.019289     -0.066571     -0.034267
Li	      4.19352      2.18381      2.13501         0.128289     -0.056969      0.033277
Li	      6.16655      2.12388      4.13911        -0.010704      0.104624     -0.108087
Li	      2.16033      4.10184      2.17712         0.040324     -0.053425      0.061452
Li	      2.16975      2.10230      4.09290         0.091419     -0.054408      0.038449
Li	      4.14088      4.10908      4.09371         0.024635     -0.076619      0.120762
Li	      6.24741      4.15814      6.16447        -0.000608      0.124796     -0.294435
Li	      0.10379      4.12050      4.10624         0.042769      0.042939      0.048853
Li	      6.26698      8.27091      6.18549         0.008094     -0.019835     -0.010660
Ti	      8.32590      2.20167      6.20831         0.488756      0.192014     -0.264158
Fe	      2.06563      6.02426      4.16887        -0.291998      0.174550      0.134222
Fe	      4.26420      6.21852      6.04427         0.035006     -0.010479      0.289489
Fe	      4.20034      4.15898      8.25475        -0.401168      0.156727      0.064239
Fe	      6.25865      6.22731      8.28825        -0.062391      0.258833     -0.004857
Co	      8.31141      4.18419      4.16959         0.040163      0.098415     -0.079761
Co	      0.04261      2.05687      2.07515        -0.059080     -0.243834      0.096089
Cu	      4.18987      2.10414      6.13073        -0.213474      0.080718     -0.097298
Ni	      6.20180      4.14014      2.12922         0.176061     -0.157618      0.065160
O	      1.94794      2.08060      1.97322         0.043926      0.271933     -0.098341
O	      4.23610      4.30752      2.10538        -0.445278      0.223348     -0.065852
O	      4.17934      1.93226      4.22878         0.049854      0.033935     -0.181567
O	      6.44664      4.16938      4.08646        -0.127433      0.004817      0.514012
O	      6.34465      2.08799      6.37715        -0.127046      0.082609     -0.106932
O	      8.36439      4.10374      6.08707        -0.023239     -0.226191      0.271124
O	      2.08455      4.19939      4.15145         0.044171     -0.365831     -0.077514
O	      4.10638      6.23141      4.09082         0.012659      0.053794     -0.119294
O	      4.21045      4.26222      6.24903         0.003321     -0.237900     -0.054046
O	      6.20142      6.23105      6.31022         0.210442     -0.037435     -0.068892
O	      6.18576      4.14387      8.28933         0.278146     -0.284523      0.003846
O	      8.40087      6.27023      8.24924         0.099033     -0.174897      0.070873
O	      2.19506      6.27872      6.16277        -0.124836      0.168206     -0.172508
O	      4.06029      8.17663      6.27721        -0.238451      0.223193      0.054519
O	      4.22712      6.18225      8.36660         0.148742      0.102776     -0.174681
O	      6.37639      8.23759      8.28180        -0.086062     -0.191285     -0.075087
O	      6.27233      6.21675     10.25591         0.142455     -0.047069      0.107254
O	      8.32934      8.34016     10.39930         0.084213     -0.093338      0.114616
