# total energy = -211.63825512 eV
 
CRYSTAL
PRIMVEC
0.023740 6.079816 6.099135 
6.753305 0.004149 6.120589 
4.473095 4.038138 0.032569 
PRIMCOORD
36 1
Li	      2.21545      2.04886      0.09298         0.004997      0.032431     -0.009212
Li	      2.43086      6.07312      8.22644        -0.005553      0.057388     -0.025414
Li	      4.54960      1.99440      2.18795         0.016606     -0.024193      0.060409
Li	      8.80801      4.05717      4.01230         0.024190      0.032417     -0.018898
Li	      6.55629      2.05881      3.98939        -0.050824     -0.063065     -0.060881
Li	      0.14665      1.97193      2.04639         0.000701     -0.040340      0.011196
Li	      4.67073      4.00813      4.01358        -0.014559      0.027649     -0.025959
Li	      8.69415      8.22509      8.15072         0.003321     -0.017173     -0.019005
Li	      6.52619      6.12426      8.20750        -0.014985     -0.013333      0.061590
Ti	      8.97793      6.22479     10.08512         0.136524      0.318673     -0.319823
Fe	      4.47040      4.07979      0.14586        -0.013213     -0.145577     -0.127765
Fe	      4.63655      2.07057      6.04494         0.055446      0.159317      0.269157
Fe	      6.77077      4.05832     10.05299        -0.114662     -0.150478      0.209812
Fe	      6.70922      8.07208      6.29448         0.040345     -0.007717     -0.121084
Co	      2.31136      3.98840      2.06000         0.015715      0.060599     -0.012926
Co	      4.43090      6.03542      6.17624        -0.047838      0.189644     -0.154072
Cu	      2.36453      2.00739      4.04159        -0.092029      0.192161     -0.184920
Cu	      6.82575      4.01757      6.15937        -0.051674     -0.181100      0.069589
O	      6.74638      4.18717      4.18762         0.020992     -0.085554      0.033394
O	      2.24458      2.07786      2.19173        -0.069112     -0.025078     -0.149762
O	      4.26988      4.01232      2.04263        -0.075978      0.001286      0.150372
O	      4.60435      2.00164      4.20214         0.169845     -0.018342     -0.302392
O	      6.68751      2.04842      6.12903         0.109052      0.072221      0.011009
O	      9.20505      4.06146      6.26070        -0.005917     -0.093840      0.068168
O	      2.11368      3.95359      4.02673         0.010943      0.014549     -0.039115
O	      4.19883      6.07608      4.23149        -0.178516     -0.112391      0.126544
O	      4.27000      4.09011      6.12624        -0.099840      0.130527      0.032839
O	      6.82120      6.04819      5.98795        -0.344521     -0.055239      0.123765
O	      7.07163      4.04123      8.13120         0.116407     -0.017202     -0.206956
O	      9.04435      5.97350      8.20366        -0.018736     -0.035955      0.168089
O	      2.11303      6.04719      6.01566         0.364162      0.167392      0.103257
O	      4.61801      8.01719      6.02288        -0.022597     -0.143292      0.038212
O	      4.50338      6.07717      7.98569         0.015848     -0.046730     -0.174450
O	      6.69976      8.09938      8.12669         0.030282     -0.010421      0.296112
O	      6.99450      6.02600     10.23225         0.156611      0.093923      0.075561
O	      9.16375      8.06036     10.11401        -0.071432     -0.263157      0.043556
