# total energy = -215.21887738 eV
 
CRYSTAL
PRIMVEC
-0.012085 6.290964 6.295528 
6.186561 -0.031479 6.315933 
4.121516 4.204947 -0.018397 
PRIMCOORD
36 1
Li	      4.04839     10.36045      6.24758        -0.041618     -0.040492     -0.026880
Li	      8.24779      2.13749      6.30682         0.093804      0.024079     -0.020727
Li	      4.10742      2.12896      2.06142        -0.062031     -0.006491     -0.032239
Li	     10.26103      6.26456      8.40312         0.017384      0.006102     -0.084801
Li	      2.05038      4.11829      2.14497         0.027560     -0.072977     -0.048779
Li	      2.01209      2.09437      4.14801         0.020451      0.012975      0.027193
Li	      8.28773      6.23768      6.31378         0.021438     -0.048586      0.003722
Li	      2.09229      6.13480      4.20476        -0.001963     -0.001486      0.080951
Li	      6.10119      8.38536      6.23998        -0.086620      0.014339     -0.033391
Ti	      1.97226      0.17046      1.98462        -0.120636      0.587130     -0.044233
Fe	      6.18059      2.11861      4.29433         0.089390     -0.046204     -0.105141
Fe	      3.94038      4.13941      4.17455         0.027068     -0.200821      0.109026
Fe	      8.27573      8.33060      8.39605         0.027067      0.083244      0.031203
Fe	      6.24517      6.29710      8.42305        -0.074950      0.006378      0.152982
Co	      4.10642      0.06698      4.22071         0.085712     -0.025865      0.137190
Co	      6.25937      4.19956      6.31738         0.118386     -0.096339     -0.028418
Co	      4.11355      6.36576      6.21942         0.241851     -1.470085     -0.167944
Cu	      4.17516      8.34307      4.19140         0.028939     -0.092093      0.505422
O	      2.06244      1.98355      2.04430        -0.082191     -0.574648      0.039711
O	      4.21178      4.15181      2.13632         0.186541      0.090970     -0.045896
O	      4.17096      2.08775      4.20109        -0.051741      0.000478      0.011999
O	      6.26069      4.15106      4.05274         0.056200      0.028722     -0.006884
O	      6.21584      2.31499      6.22922        -0.067122      0.155517      0.174786
O	      8.13696      4.24560      6.10484        -0.176851      0.045223     -0.023254
O	      2.05562      4.10690      4.21166         0.116786      0.021738     -0.023874
O	      4.09704      6.06192      4.23749        -0.007242      0.405030      1.085557
O	      4.28533      4.27750      6.34057        -0.085308      0.505746     -0.126224
O	      6.15269      6.13114      6.43356        -0.770827      0.290496     -0.256265
O	      6.16813      4.26276      8.55072         0.001084     -0.008664     -0.242880
O	      8.19184      6.38253      8.44778         0.083465     -0.080287     -0.026864
O	      2.08549      6.20516      6.42469         0.623336      0.256377     -0.204680
O	      4.11730      8.20570      6.16699        -0.007433     -0.016158     -0.207038
O	      4.09942      6.25877      8.48468        -0.008553      0.026775     -0.479916
O	      6.25321      8.36455      8.43411         0.021665      0.035239     -0.006040
O	      6.04465      6.43227     10.50660        -0.116715      0.071746     -0.048593
O	      8.26138      8.59924     10.44122        -0.126324      0.112896     -0.068784
