# total energy = -216.67481850 eV
 
CRYSTAL
PRIMVEC
-0.031452 6.401080 6.117621 
6.234994 -0.017966 6.105807 
4.157014 4.258557 -0.012592 
PRIMCOORD
36 1
Li	      6.19879      0.09050      6.08682         0.027881      0.056600      0.029073
Li	      8.23277      2.16400      6.10420        -0.055983      0.001476     -0.033254
Li	      6.11248      4.37065      2.02651        -0.102820      0.036531     -0.009548
Li	      4.12664      2.17195      2.03342         0.007033      0.098461      0.016963
Li	      8.28588      4.20724      4.20274         0.011895     -0.061994     -0.001617
Li	      6.24097      2.09375      8.10647        -0.056374     -0.073050     -0.070355
Li	      4.28492      2.01691      6.06842         0.114916      0.026343      0.011687
Li	      6.28173      4.08225      6.07905        -0.047741     -0.114235     -0.059650
Li	      8.31955      8.45743      8.14728         0.054294     -0.036980     -0.020643
Ti	      6.19434      6.32043      8.16844        -0.063869     -0.076400      0.221986
Fe	      8.36121      4.19228      7.97885         0.246421      0.091448      0.325979
Fe	      2.21082      1.97616      4.04185        -0.140292      0.083260      0.008759
Fe	      6.20238      8.59777      6.19134         0.023628      0.022049     -0.084992
Fe	      4.07310      6.44369      6.14218         0.008277     -0.145358      0.111713
Co	      4.14895      4.23930      4.05113        -0.070717      0.098388      0.145028
Co	      6.26060      2.14328      4.07839         0.120774      0.096681      0.025277
Co	     10.27064      8.52291     10.17670         0.185201      0.228000      0.096834
Co	      8.28554      6.39214     10.17751        -0.114400      0.094186     -0.125931
O	      2.02869      2.21342      2.15936         0.027406     -0.041975     -0.022682
O	      4.09398      4.29758      2.19420         0.013928     -0.125396     -0.189039
O	      4.15597      2.16528      4.07027        -0.044783      0.836710     -0.003915
O	      6.14665      4.29363      4.05170        -0.516389      0.215088     -0.027717
O	      6.23729      2.12370      5.88058         0.001696     -0.020044      0.306662
O	      8.34821      4.22340      6.14256        -0.050545      0.054986     -0.408689
O	      2.08009      4.38410      4.09892         0.483374     -0.170765     -0.052107
O	      4.03449      6.41433      4.10629         0.106960     -0.267616     -0.017237
O	      4.06062      4.37812      5.97753         0.038299      0.057712      0.053614
O	      6.19485      6.50737      6.10253        -0.019143     -0.021051      0.047096
O	      6.27035      4.38028      8.13558        -0.139846      0.042759      0.582393
O	      8.22889      6.32065      8.21827        -0.166698     -0.007065      0.126426
O	      2.07887      6.34381      6.05266        -0.050835      0.044431     -0.032801
O	      4.21599      8.45468      6.10533        -0.202152     -0.034219     -0.691584
O	      4.28697      6.33572      8.11049         0.221702      0.043012      0.128759
O	      6.23827      8.39558      8.19503         0.002078     -0.146347     -0.156577
O	      6.34501      6.40674     10.12970         0.028531     -0.693693     -0.278502
O	      8.23130      8.30124     10.16101         0.118293     -0.191934      0.048589
