# total energy = -206.29862688 eV
 
CRYSTAL
PRIMVEC
-0.004480 6.255333 6.173979 
6.266802 -0.000228 6.169908 
4.194591 4.184464 -0.016691 
PRIMCOORD
36 1
Li	      4.19748      4.21096      0.07288        -0.029822     -0.002399     -0.044962
Li	      6.17927      4.13311      2.00941         0.013847     -0.031686      0.037053
Li	      4.25306      2.20546      2.00988         0.036025      0.014837      0.016741
Li	      6.28669      8.33194     10.24737        -0.001155     -0.018328     -0.008951
Li	      2.17248      4.21716      2.02782        -0.027823      0.010132     -0.013158
Li	      4.16862      4.16497      4.01068         0.018744     -0.016234      0.043843
Li	      6.29658      4.13047      6.22541         0.040294      0.002282      0.003179
Li	      8.32720      6.26685     10.27240        -0.049869     -0.011489      0.001739
Li	      6.25282      6.27094      8.22640        -0.027998      0.035558      0.005590
Ti	      2.09617      2.02192      4.00556         0.260174     -0.290406     -0.145535
Fe	      4.19911      6.24881     10.22475        -0.126319      0.103086      0.020104
Fe	      4.26043      2.08400      6.19807        -0.055142     -0.027367     -0.146861
Fe	      6.23640      4.22067     10.26426        -0.001012      0.133366      0.059043
Fe	      2.08031      4.24752      6.21967        -0.021494     -0.119210      0.058582
Cu	      4.15620      6.19390      2.04106         0.135348      0.118608     -0.001236
Ni	      2.07156      2.07598      0.03977        -0.025948      0.001415     -0.026281
Ni	      4.19496      6.22949      6.23237         0.074603     -0.055452      0.066759
Ni	      8.36309      8.31834      8.23129        -0.160929      0.089686      0.012924
O	      2.03645      2.13972      2.11222         0.041417      0.016251      0.262859
O	      4.16175      4.25975      2.06562        -0.020942      0.018819     -0.008002
O	      4.08952      2.09388      4.14637        -0.137863      0.078441     -0.027696
O	      6.41132      4.30363      4.09066        -0.199628      0.310235     -0.010232
O	      6.24941      2.09782      6.23559        -0.006591     -0.028959     -0.108321
O	      8.35769      4.22904      5.97138        -0.000259      0.028958      0.329512
O	      2.01645      4.12346      4.27883         0.015289     -0.043001     -0.338745
O	      4.32676      6.29351      4.12012        -0.078057     -0.032888      0.114934
O	      4.14202      4.14311      6.17788         0.082636     -0.051932     -0.074890
O	      6.31379      6.38085      6.08417         0.051037     -0.102479     -0.083130
O	      6.24154      4.07684      8.31778         0.067756     -0.150411     -0.005722
O	      8.42653      6.25271      8.16104        -0.039696     -0.089216      0.070901
O	      2.15788      6.17271      6.15319        -0.129616      0.207435     -0.018545
O	      4.17473      8.27008      6.12487        -0.006505      0.116589      0.000693
O	      4.18171      6.21417      8.34143         0.012822      0.008000     -0.315291
O	      6.28927      8.34868      8.03946        -0.025973     -0.007997      0.297414
O	      6.11408      6.22075     10.25588         0.298060     -0.085688     -0.013328
O	      8.38150      8.37168     10.31845         0.024589     -0.128555     -0.010984
