# total energy = -206.11461988 eV
 
CRYSTAL
PRIMVEC
0.017451 6.047774 6.238055 
6.311975 -0.001245 6.256729 
4.226460 4.064164 -0.019262 
PRIMCOORD
36 1
Li	      2.17380      2.03687      0.05241         0.018529     -0.018896      0.008746
Li	      4.24804      8.05915      8.23793         0.009863     -0.057159     -0.000319
Li	      6.28734      2.06177      4.14235        -0.017922      0.040507      0.012964
Li	      6.36567      2.04182      8.30004         0.031554      0.052664     -0.035130
Li	      2.11146      2.03170      4.15013         0.022285     -0.006088      0.005313
Li	      8.43790      6.09649      6.26341         0.021111      0.079406     -0.007267
Li	      4.31210      8.06160      4.22913         0.021169     -0.066917      0.033391
Li	      6.25427      8.05700      6.29169        -0.013934     -0.042399      0.025978
Li	      8.35582      8.10983      8.26077        -0.061822      0.019098     -0.029144
Ti	      8.45012      6.21436     10.34998         0.227128      0.321643     -0.059140
Fe	      2.11108      6.03936      8.28344         0.180194     -0.032439      0.060495
Fe	      4.27859      6.08728     10.41877        -0.157682      0.033974     -0.124369
Fe	      4.16117      3.93232      4.16133         0.129447     -0.015624      0.071995
Fe	      6.28457      4.00067      6.27353         0.088779      0.246938     -0.194367
Cu	      4.24923     10.09690      6.22971        -0.006844     -0.190023      0.079611
Cu	      2.13572      3.95329      2.04455        -0.040429     -0.033845     -0.020935
Ni	      4.24559      6.08132      6.24348        -0.246539     -0.158177      0.058712
Ni	      6.32163      6.14505      8.29843        -0.040356      0.053473      0.098322
O	      4.25767      7.96215      6.20976         0.039683      0.808057     -0.025713
O	      2.09440      1.91547      2.09145        -0.014142      0.235996      0.009382
O	      4.25138      4.05003      2.05937        -0.160699      0.003448      0.091661
O	      4.21634      1.99925      4.19914        -0.001377     -0.059673     -0.018677
O	      6.34840      4.06559      4.20793         0.008031      0.007098     -0.059273
O	      6.30681      2.21339      6.26233         0.022972     -0.587004      0.017275
O	      8.53597      4.06203      6.21408        -0.205127     -0.007816      0.067680
O	      2.18603      4.08405      4.04806        -0.115749      0.024112      0.004847
O	      4.06963      6.00542      4.21539        -0.254752      0.039521     -0.175004
O	      4.26930      4.10837      6.16349        -0.047050     -0.304664      0.003979
O	      6.26650      5.93420      6.27855         0.172687      0.138043     -0.063947
O	      6.45233      4.07723      8.17690         0.074434     -0.022450      0.170912
O	      8.38545      6.06160      8.45167         0.042110     -0.047206      0.182204
O	      2.02203      6.05301      6.19707         0.194193     -0.007220     -0.144951
O	      4.18964      6.04842      8.37697         0.024908     -0.029497      0.100189
O	      6.35183      8.18828      8.30200        -0.034240     -0.084067      0.032452
O	      6.36147      6.05401     10.46799         0.076423      0.035352     -0.173619
O	      8.47538      8.08429     10.37791         0.013163     -0.368166     -0.004253
