# total energy = -206.30204227 eV
 
CRYSTAL
PRIMVEC
-0.008471 6.398302 6.177933 
6.098641 -0.007012 6.176550 
4.067191 4.266235 -0.006201 
PRIMCOORD
36 1
Li	      4.04701      4.25321      0.08249        -0.019925      0.029294      0.000579
Li	      4.05474      8.51993      8.17006        -0.123659      0.012184      0.072521
Li	      8.17154      4.29280      8.16308         0.002472      0.017478     -0.060469
Li	      4.04099      4.30699      4.05897         0.015125     -0.126557     -0.036962
Li	      4.07374      2.19291      6.23261        -0.065423      0.028990      0.052403
Li	      6.04743      4.21031      6.24610        -0.019679      0.016114      0.001717
Li	      2.07417      6.40546      4.07679        -0.023707      0.015646     -0.056061
Li	      4.04984      6.42456      6.23483         0.054711     -0.031705      0.083959
Li	      4.12789      4.21834      8.17623        -0.032818     -0.018133      0.005963
Ti	      2.15835      4.39465      6.18399         0.467272     -0.068124      0.352243
Fe	      8.14686      4.26558      4.15207         0.057017      0.244670     -0.309776
Fe	      6.03500      2.16239      4.14804         0.000270      0.087616      0.019398
Fe	      6.06240      6.39591      4.15639         0.369107     -0.117967      0.121269
Fe	      6.14590      6.29720      8.19729         0.116790      0.164105     -0.439222
Cu	      2.05060      2.16699      0.01480         0.021650     -0.073194      0.453218
Cu	     10.11558      6.31864      8.19867        -0.719525      0.112936     -0.417212
Cu	      4.05785      8.51335      4.13356         0.054260     -0.212494     -0.311814
Ni	      6.07019     10.65388      8.20510         0.241612      0.044710     -0.001089
O	      6.10672      4.34161      8.33519        -0.019560     -0.478095      0.245085
O	      8.04848      6.37480      8.21592         0.664409      0.056425      0.093709
O	      1.96137      2.06214      2.05128         0.305389      0.052710     -0.124607
O	      4.08794      4.32707      2.04559        -0.031445      0.026896      0.052975
O	      4.03697      2.05612      4.14126         0.026402     -0.031585      0.038986
O	      6.13776      4.25179      4.07190        -0.137050     -0.080996      0.198435
O	      6.12577      2.14836      6.17394         0.182056     -0.057695     -0.230735
O	      8.14039      4.14284      6.10246        -0.054426      0.060461      0.151207
O	      2.00048      4.14937      4.24562        -0.186037      0.033082     -0.103933
O	      4.12444      6.32404      3.94797        -0.129527      0.592049      0.552467
O	      3.96532      4.28794      6.18006        -0.420093      0.052005     -0.153575
O	      6.07103      6.50578      6.18775        -0.003808      0.112925     -0.315443
O	      2.04012      6.30067      6.18225        -0.030226     -0.115008     -0.218533
O	      4.03501      8.51557      6.09688         0.064342     -0.001276     -0.181997
O	      4.18185      6.36781      8.30299        -0.823270      0.025020      0.143956
O	      6.07476      8.52616      8.21765         0.036578      0.001624     -0.113122
O	      6.08905      6.57184     10.18660         0.087269     -0.277905      0.564845
O	      8.08559      8.59648     10.38890         0.073446     -0.096204     -0.130385
