# total energy = -206.54050031 eV
 
CRYSTAL
PRIMVEC
0.006787 6.292857 6.231247 
6.305571 0.013528 6.224463 
4.209997 4.197017 0.002798 
PRIMCOORD
36 1
Li	      8.36904      2.13842      6.24684        -0.008750     -0.000105      0.122767
Li	      6.28394      4.24929      2.16997        -0.000306      0.044869      0.040597
Li	      4.18015      0.02977      4.14334         0.000309      0.035866     -0.036085
Li	      4.23821      6.27220      2.12707         0.024171      0.003298      0.085586
Li	      2.11194      2.04927      4.10051        -0.041733     -0.020214     -0.051528
Li	      4.26153      4.18422      4.09256         0.019542     -0.021276     -0.070909
Li	      4.23621      2.07412      6.17833         0.047322     -0.010231     -0.085747
Li	      6.28488      4.22124     10.32037         0.020173     -0.009186     -0.049977
Li	      6.32248      6.28593      8.34748        -0.005640     -0.007605      0.010237
Ti	      4.23133      6.32551      6.16714         0.016480      0.156255     -0.028148
Fe	      4.17527      2.08291      2.17233        -0.195647      0.037503     -0.105094
Fe	      8.38434      4.21797      8.32205         0.037028     -0.115188      0.385171
Fe	      6.39118      4.14145      6.17760        -0.068426     -0.007959      0.248163
Fe	      2.13226      4.17152      6.19415        -0.025952     -0.012569      0.125699
Cu	      6.26452      0.07320      6.21837        -0.236831      0.146135      0.155579
Cu	      6.30320      2.12213      4.15003        -0.142189      0.079823     -0.058085
Cu	      8.39795      6.32069     10.36532         0.258006     -0.199912     -0.113758
Cu	      8.44346      8.39293      8.34853         0.164236     -0.014267     -0.009156
O	      8.41797      6.24104      8.38897        -0.064053      0.117973     -0.102602
O	      6.39196      6.38990     10.50549        -0.157188      0.071593      0.115208
O	      8.34343      8.31783     10.27884        -0.158527      0.177545     -0.046504
O	      2.19437      2.20234      2.11511        -0.089181     -0.141643      0.053212
O	      4.12504      4.13172      1.95977         0.151798      0.092044     -0.102284
O	      4.30306      2.09594      4.09062         0.149234      0.031175      0.134759
O	      6.30902      4.13082      4.23130         0.016519     -0.006489      0.003393
O	      6.30559      2.17853      6.13812         0.128755      0.016770      0.399199
O	      8.35225      4.24105      6.32586        -0.006738     -0.062582     -0.464703
O	      2.09736      4.28203      4.17868         0.027228     -0.123071      0.081377
O	      4.14017      6.29506      4.27420         0.040928     -0.024485      0.255999
O	      4.18496      4.28748      6.35419         0.177138     -0.009137     -0.227261
O	      6.19705      6.32397      6.17010        -0.081734     -0.215951     -0.071169
O	      6.34693      4.19573      8.22312        -0.059196      0.057861     -0.100174
O	      2.20286      6.21489      6.16887         0.038041      0.052261      0.147724
O	      4.29007      8.28274      6.29321        -0.037375     -0.046785     -0.168710
O	      4.18981      6.34841      8.20898        -0.003477     -0.029099     -0.155444
O	      6.27439      8.40197      8.25673         0.066035     -0.043217     -0.317334
