# total energy = -205.45813684 eV
 
CRYSTAL
PRIMVEC
-0.000330 6.178589 6.274503 
6.288404 -0.002726 6.277079 
4.185318 4.113862 0.005022 
PRIMCOORD
36 1
Li	      6.27345      6.18238     12.50885         0.021561      0.004067     -0.062942
Li	      4.22263      8.17565      8.33275         0.009938     -0.014586      0.002653
Li	      4.28867      6.12985     10.39325         0.074609      0.030712     -0.047532
Li	      6.20404      2.17008      8.35000         0.023722     -0.059262      0.014375
Li	      6.33109      4.10230      6.42261        -0.005809      0.010247     -0.018824
Li	      6.22313      4.17125     10.36441        -0.011598      0.002551      0.042287
Li	      8.31049      6.22604     10.36273         0.000155     -0.008986     -0.005328
Li	      8.43327      8.21783      8.41683         0.018840      0.009160      0.016594
Li	      6.33086      6.09212      8.41997        -0.023782      0.051703     -0.017089
Ti	      4.13477      4.12825      4.11458        -0.056245      0.163681     -0.214777
Fe	      8.39497      2.12806      6.22457         0.043987     -0.172495      0.010082
Fe	      6.37420      8.13203     10.40218         0.005292      0.220820     -0.024764
Fe	      6.28578      6.14895      4.17245        -0.091697     -0.065889      0.058367
Fe	      4.20339      6.16801      6.39696         0.055739     -0.005432     -0.169958
Ni	      2.11102      6.18755      8.35477        -0.037995      0.044436     -0.013017
Ni	      8.32495      4.14028      8.35755         0.153409     -0.073455      0.033413
Ni	      8.39313      6.12484      6.33558         0.050152      0.024971     -0.030454
Ni	      6.22575      8.26105      6.34841        -0.072212     -0.001643      0.093490
O	      6.44479      4.11269      8.40326        -0.163754      0.005161     -0.011480
O	      2.05783      2.10141      2.13030        -0.011031      0.011648     -0.029014
O	      4.09088      4.12160      2.23183         0.040824      0.013416      0.294719
O	      4.12807      2.13351      4.27376         0.072183      0.058412     -0.065181
O	      6.16913      4.08548      4.13531        -0.139719     -0.003109      0.090085
O	      6.33675      2.05743      6.06525         0.021617      0.040799      0.200138
O	      8.40550      4.05654      6.30935         0.010147      0.136054     -0.037682
O	      2.17799      4.07162      4.22689         0.117296      0.034068     -0.016091
O	      4.26761      6.06137      4.32337        -0.073561     -0.214317     -0.125481
O	      4.12312      4.13221      6.22730         0.067980     -0.111051     -0.082206
O	      6.25426      6.21176      6.18497         0.043256     -0.104575      0.050998
O	      8.40562      6.06263      8.29217        -0.013346      0.140987      0.076916
O	      2.13831      6.22736      6.33795        -0.068965      0.038613     -0.099826
O	      4.15063      8.14890      6.27391        -0.083502      0.180795      0.008705
O	      4.17167      6.15256      8.25761         0.001125     -0.006621      0.364041
O	      6.26335      8.28488      8.49983        -0.010451     -0.077544     -0.183433
O	      6.28032      6.34416     10.41724         0.011365     -0.301169     -0.005605
O	      8.36151      8.25450     10.52789         0.020471     -0.002168     -0.096178
