# total energy = -220.43537540 eV
 
CRYSTAL
PRIMVEC
0.039337 6.192115 6.148347 
6.334973 0.029751 6.157498 
4.250519 4.161454 -0.007777 
PRIMCOORD
36 1
Li	      8.45333      2.15086      6.15732        -0.008310      0.021036     -0.068508
Li	      4.17178      2.08979      2.03422         0.012199      0.021776     -0.009231
Li	      6.46465      8.28446     10.23474         0.035107      0.010728      0.003684
Li	      6.36826      2.24272      8.14988        -0.053710     -0.063339     -0.034761
Li	      8.33527      4.13395      8.22174        -0.099394      0.021987     -0.023596
Li	      6.33822      4.13383      6.32449         0.023829     -0.026372     -0.034244
Li	      6.28654      4.15306     10.11700        -0.073919      0.001791      0.045030
Li	      8.60002      8.26551      8.25281         0.072603     -0.013338      0.041007
Li	      6.43992      6.06928      8.21546         0.058671     -0.013885      0.014039
Ti	      6.32535      8.19356      6.22127        -0.103345     -0.170915      0.117050
Mn	      6.28755      0.07823      6.15932        -0.000744      0.033967     -0.009246
Cr	      2.12058      0.09658      2.02026        -0.179504      0.071158     -0.094764
Cr	      4.28785      6.15205     10.21442        -0.009514      0.173708      0.135254
Cr	      4.27178      4.13205      4.08052        -0.009975     -0.217050     -0.038623
Co	      8.51111      6.22733      6.20912         0.039035     -0.144938      0.193039
Cu	      4.30177      6.16911      6.23136        -0.036432      0.134862     -0.049206
Ni	      8.49413      6.34284     10.14659        -0.053303     -0.023405      0.021779
Ni	      2.10175      2.11429      4.03625        -0.003987      0.070392      0.072151
O	      6.37210      4.15697      8.20352        -0.011114      0.000139      0.043659
O	      2.12443      2.00642      2.03038         0.006219     -0.094901     -0.127133
O	      4.38451      4.13444      2.01650         0.064784     -0.005130     -0.019843
O	      4.19756      2.07804      4.22012         0.093363      0.050918      0.002405
O	      6.37793      4.20055      4.00818        -0.024433     -0.123707     -0.032467
O	      6.16860      1.96296      6.17477        -0.004318     -0.059294     -0.037863
O	      8.60558      4.27917      6.08540         0.016151     -0.119175     -0.032004
O	      2.28371      4.19775      4.17164         0.043862      0.022278      0.090258
O	      4.25962      6.11746      4.28202         0.053844      0.106082     -0.024048
O	      4.18265      4.05093      6.07881        -0.014216      0.144675     -0.109200
O	      6.50271      6.29589      6.12179         0.175479      0.180469      0.163736
O	      8.46935      6.20549      8.11300         0.049141      0.109070     -0.222281
O	      1.96333      6.18467      6.13112        -0.065134     -0.017886      0.133393
O	      4.40661      8.36895      6.12204         0.120489      0.019270      0.034782
O	      4.14998      6.25863      8.18594         0.035736     -0.126058     -0.020146
O	      6.43210      8.41124      8.05300        -0.037280      0.029187     -0.159972
O	      6.31162      6.24241     10.38811        -0.070269     -0.022087      0.044300
O	      8.48447      8.37323     10.28790        -0.041611      0.017988     -0.008428
