# total energy = -220.72043195 eV
 
CRYSTAL
PRIMVEC
0.014748 6.259981 6.305489 
6.231624 -0.009873 6.329265 
4.138312 4.173125 0.009477 
PRIMCOORD
36 1
Li	     10.24016      4.24629      6.32384        -0.125235      0.004420     -0.050660
Li	      4.20865      0.08076      4.31447        -0.010895      0.006243      0.046224
Li	      6.09907      1.98415      4.34379         0.031873     -0.041703     -0.079987
Li	      8.27311      4.25030      8.21046         0.044673     -0.021243     -0.036252
Li	      4.15175      4.03764      4.25619        -0.011623     -0.058397      0.082498
Li	      8.28786      6.21930      6.30266         0.025961     -0.059800     -0.041623
Li	      6.30483      4.11133      6.36089         0.007600      0.052912     -0.015155
Li	      4.24521      4.08286      8.37775        -0.085239      0.080579     -0.012620
Li	      6.25813      6.22554      8.46214        -0.070561      0.067205      0.014247
Ti	      6.18013      4.16250      2.28871         0.292525     -0.213065      0.520967
Mn	      2.12805      4.16445      6.33618        -0.029419     -0.028206     -0.053684
Cr	      6.23093      4.20244     10.49031         0.142002      0.142885      0.263553
Cr	      8.30766      6.25574     10.48656        -0.133105     -0.197879      0.187750
Cr	      4.20073      6.22752      6.34675         0.063691     -0.047990     -0.001950
Co	      6.22709      2.08970      8.40517        -0.488289     -0.033369     -0.832815
Cu	      8.17172      2.21831      6.26923         0.322911      0.014667     -0.394198
Cu	      6.30670      6.20310      4.26159        -0.056831     -0.128456      0.127405
Ni	      4.09714      2.14211      2.15144         0.068329     -0.064627     -0.049976
O	      8.28449      4.12060      6.27545         0.077184      0.203791      0.104534
O	      2.00520      2.00236      1.92507         0.002750      0.062571      0.340657
O	      4.25321      4.25978      2.06984        -0.016375      0.292804      0.110597
O	      4.06551      2.08224      4.14571         0.330962      0.128140     -0.001128
O	      6.20744      4.15571      4.11207        -0.149077     -0.259952     -0.448893
O	      6.24009      2.10637      6.51111        -0.534906     -0.200606      0.608805
O	      2.03775      4.20382      4.38007        -0.036887      0.345256     -0.118929
O	      4.20212      6.32377      4.20846        -0.088723     -0.009275     -0.053593
O	      4.02675      4.25541      6.33120         0.126264      0.013838     -0.016676
O	      6.18301      6.42473      6.42009        -0.018743     -0.202633     -0.070253
O	      6.25640      4.01471      8.53625        -0.063949     -0.198128     -0.003172
O	      8.46297      6.22933      8.54515         0.205474      0.060137      0.035288
O	      2.17453      6.13907      6.25243        -0.039346      0.172565     -0.038645
O	      4.26001      8.27690      6.28529         0.250218     -0.043098     -0.081684
O	      4.02592      6.32858      8.30253        -0.121977     -0.052008      0.018799
O	      6.17611      8.47662      8.28095         0.058272      0.190023      0.066015
O	      6.35029      6.17979     10.47727         0.009611     -0.023311     -0.030010
O	      8.37507      8.23824     10.61564         0.020880      0.045712     -0.095436
