# total energy = -221.92292917 eV
 
CRYSTAL
PRIMVEC
0.048595 6.224333 6.156391 
6.332722 0.035291 6.169731 
4.243560 4.180091 0.001829 
PRIMCOORD
36 1
Li	      4.34091      2.10149      2.17140         0.179993      0.006733     -0.042478
Li	      6.21746      2.17968      4.04873        -0.013179      0.036391     -0.004051
Li	      2.22675      2.12001      4.08973         0.049914     -0.038595     -0.035570
Li	      4.23903      4.03741      4.11038         0.048748     -0.125409     -0.009169
Li	      4.17952      2.15217      6.10620        -0.010715      0.030637      0.004633
Li	      6.33768      4.18562      6.11266        -0.047646     -0.039338     -0.006828
Li	      2.16149      6.14328      4.05076        -0.023702      0.018816      0.020721
Li	      2.19626      4.12576      6.14450         0.042056      0.013643      0.039280
Li	      6.41640      6.33381      8.20488         0.021565      0.061563     -0.001790
Ti	      4.44289      6.18347      6.06849         0.448623     -0.200464      0.038778
Mn	      4.18035      0.13146      4.10676         0.029413      0.021328     -0.035299
Cr	      4.26182      4.18266      0.03026         0.045299     -0.021849      0.041321
Cr	      2.09334      2.08619      0.02728        -0.033960      0.041723     -0.121160
Cr	      8.45560      8.30676      8.19952        -0.006783      0.084513      0.054039
Co	      4.23493      6.24587      2.09021        -0.037493      0.032260     -0.038063
Cu	      6.34990      4.16302      2.09939         0.022928     -0.002380      0.058868
Cu	      8.45429      4.23950      8.27707         0.072527     -0.044522     -0.021682
Cu	      6.39477      4.19687     10.25262         0.028595      0.097291      0.054463
O	      2.02619      4.17990      3.98868         0.032224     -0.033248      0.035335
O	      6.51031      8.38407      8.21003        -0.091589     -0.164876     -0.070266
O	      1.95392      2.07976      2.01192        -0.101805      0.080449      0.122699
O	      4.34621      4.28805      2.04304        -0.198606      0.080018      0.027990
O	      4.24058      1.99958      4.11326        -0.012490      0.119774      0.039898
O	      6.50660      4.20044      4.05677         0.018568      0.038495      0.158824
O	      6.42655      2.03488      6.30458        -0.031237      0.026540      0.188114
O	      8.57605      4.12380      6.32791        -0.058453      0.035359      0.018565
O	      4.23429      6.29839      4.11944        -0.081737     -0.093148     -0.096742
O	      4.25188      4.28363      6.17757        -0.021619      0.187126     -0.061589
O	      6.23838      6.26218      6.17191        -0.396989      0.045619     -0.075001
O	      6.22334      4.02638      8.27517        -0.072642     -0.139748     -0.323971
O	      8.61290      6.31673      8.22025         0.142444     -0.076388     -0.011678
O	      2.10116      6.32022      6.18487         0.037985     -0.068633     -0.152659
O	      4.17580      8.31334      6.14756        -0.032310     -0.106483      0.363119
O	      4.23289      6.17884      8.06847         0.161174      0.047801     -0.140499
O	      6.25074      6.20909     10.36243        -0.012098      0.140498     -0.010823
O	      8.55636      8.50223     10.28857        -0.097003     -0.091499     -0.007329
