# total energy = -221.73794309 eV
 
CRYSTAL
PRIMVEC
0.016665 6.174009 6.287266 
6.200964 0.018092 6.285751 
4.135730 4.116839 0.010231 
PRIMCOORD
36 1
Li	      4.13864      6.21451     10.42559        -0.012292     -0.000503      0.002091
Li	     10.24701      6.21321      8.47196        -0.013325     -0.001042      0.014969
Li	      8.30894      4.20089      8.40917         0.019947      0.025443      0.017818
Li	      4.10137      4.15062      4.13955        -0.020990      0.030358     -0.127588
Li	      8.18834      6.26427      6.38532         0.017716      0.013262      0.062269
Li	      8.29186      6.16671     10.42542         0.005720     -0.019951      0.037518
Li	      2.19428      4.06648      6.27370         0.036206      0.004021     -0.058419
Li	      4.18987      6.09259      6.32312         0.024278      0.006986     -0.046973
Li	      6.24010      6.18729      8.35022         0.015417     -0.004604      0.019247
Ti	      4.09761      4.13154      0.08094        -0.023834     -0.004261      0.257416
Mn	      2.08437      2.07022      4.20170        -0.042620      0.063612      0.043211
Cr	      2.05915      2.05291      0.03813         0.017478     -0.029045      0.020855
Cr	      6.16493      2.06817      4.16188        -0.022087      0.036946     -0.006299
Cr	      6.21949      4.13572     10.40897         0.028347     -0.048552      0.004222
Co	      4.15358      4.10738      8.34005         0.025545     -0.057373     -0.131067
Ni	      2.10850      6.15910      8.37995        -0.036341     -0.022577      0.010381
Ni	      4.19120      8.14480      8.36899         0.050551      0.012480     -0.079039
Ni	      6.20858      4.17862      6.33227         0.034505     -0.009632      0.044332
O	      2.14134      2.01188      2.09416        -0.155008      0.122165      0.011467
O	      4.15493      4.08631      1.97766        -0.092134      0.084319     -0.285456
O	      4.11808      2.08185      4.10296        -0.025116     -0.021229      0.129590
O	      6.16639      4.15640      4.22810         0.025416     -0.021611     -0.024330
O	      6.24854      2.03808      6.20008        -0.011657     -0.153096      0.016742
O	      8.32628      4.07625      6.36093         0.185662     -0.026565     -0.033069
O	      2.00314      3.98323      4.14847         0.039134     -0.022746      0.004580
O	      4.31074      6.25009      4.18106         0.028646     -0.017017      0.001136
O	      4.19660      4.12602      6.52017        -0.122454     -0.018016      0.174330
O	      6.24568      6.17333      6.07538        -0.014674      0.134253     -0.060760
O	      6.07025      4.15509      8.42492        -0.033118      0.001095      0.080088
O	      8.26653      6.39048      8.43544        -0.013388      0.086717     -0.004214
O	      1.97019      6.23055      6.29354        -0.113131      0.016992     -0.104900
O	      4.08582      8.29896      6.22154        -0.029891      0.081237     -0.066535
O	      4.12673      6.04525      8.38831         0.129412     -0.144173      0.004676
O	      6.27313      8.23558      8.46470         0.146619     -0.119886      0.032146
O	      6.20383      6.20546     10.61105        -0.023989      0.011064      0.054348
O	      8.26178      8.25387     10.52347        -0.024555      0.010930     -0.014784
