# total energy = -223.61317953 eV
 
CRYSTAL
PRIMVEC
0.017792 6.386479 6.155401 
6.081104 0.032214 6.142377 
4.068854 4.263761 0.005740 
PRIMCOORD
36 1
Li	      8.11164      2.20990      6.18267        -0.002360     -0.025708      0.012364
Li	      4.06350      8.36883      8.28076        -0.050508      0.019235     -0.008132
Li	      4.04514      6.44750     10.14598         0.014156     -0.000747      0.002372
Li	      4.08257      6.43277      2.15335         0.017569     -0.071508     -0.082986
Li	      6.07948      6.39713      4.08685         0.060908     -0.041140     -0.030579
Li	      4.15318      4.23073      4.15086        -0.013933     -0.053455     -0.088644
Li	      8.15349      6.47064     10.21975        -0.002791      0.011840     -0.001371
Li	      4.01672      6.36631      6.16671        -0.021044     -0.012401      0.021519
Li	      3.99339      4.38252      8.15765         0.009517     -0.030344      0.021436
Ti	      2.13301      4.20452      2.16539         0.296335     -0.477462      0.108816
Mn	      0.04854      6.36998      6.15493         0.031399      0.013998      0.041208
Cr	      4.08150      2.19916      6.10330         0.090472     -0.022544     -0.016444
Cr	      3.95972      8.37467      4.12860        -0.084697     -0.172332      0.048965
Cr	      6.03254      6.40470      8.20527        -0.044004      0.174660      0.055573
Co	      6.12542      8.55380     10.21042         0.023091      0.093001     -0.169086
Co	      6.09063      8.50778      6.16374         0.035098      0.071571      0.020608
Cu	      2.08712      0.03384      2.11352        -0.074590      0.163985     -0.150127
Ni	      6.06699      4.28456      6.08430         0.039193      0.151639      0.154218
O	      2.03863      2.36769      2.04862         0.016822      0.551239      0.011036
O	      4.05503      4.38207      2.03259        -0.180947     -0.069871      0.012870
O	      4.20684      2.15077      4.13670         0.041997     -0.010162      0.030761
O	      6.12732      4.09413      4.07091        -0.075477     -0.093488     -0.071493
O	      6.09873      2.21660      5.97868        -0.032632     -0.021226      0.098170
O	      8.22167      4.39499      6.24910        -0.091730      0.017062     -0.056716
O	      1.91114      4.30191      4.13754        -0.038415      0.052235     -0.179299
O	      4.06122      6.59532      4.12035         0.006076      0.078581      0.004271
O	      3.97702      4.18302      6.12699        -0.075445      0.000993     -0.005877
O	      6.15444      6.46276      6.17825        -0.104837     -0.019869     -0.072516
O	      6.15080      4.35965      8.22071        -0.055829     -0.048115     -0.003286
O	      8.05940      6.29288      8.13085         0.057446      0.030320      0.117009
O	      1.93991      6.18636      6.25399         0.118554     -0.105084      0.013334
O	      4.15282      8.52323      6.05926        -0.002003     -0.040013      0.019237
O	      4.05168      6.37989      8.15017         0.056243      0.017935      0.107129
O	      6.07701      8.36421      8.16544        -0.006015     -0.153988      0.053001
O	      6.11372      6.46551     10.25923        -0.002293     -0.025449     -0.038225
O	      8.19984      8.54627     10.28006         0.044672      0.046611      0.020882
