# total energy = -224.19428842 eV
 
CRYSTAL
PRIMVEC
0.021416 6.099786 6.233362 
6.312479 -0.023153 6.277243 
4.195167 4.082827 -0.002147 
PRIMCOORD
36 1
Li	      2.12311      1.99088      0.07590         0.040163      0.019458      0.013416
Li	      4.13943      2.07915      2.12854        -0.011977      0.000516      0.045212
Li	      6.31348      8.11262     10.39968        -0.034764     -0.009566     -0.000815
Li	      4.28788      6.08871      2.14079         0.008568     -0.023736      0.007036
Li	      2.01993      2.08752      4.11439         0.013427     -0.022793      0.033734
Li	      4.15267      4.12319      4.19800        -0.002975     -0.010909      0.016707
Li	      2.21700      6.09182      4.21290        -0.001895      0.036706     -0.022998
Li	      2.08605      4.13048      6.18812        -0.012844     -0.014467     -0.004303
Li	      4.17208      6.06154      6.13665         0.047074     -0.070523      0.031457
Ti	      8.32486      4.10248      4.18487        -0.130274      0.157239     -0.077354
Mn	      4.24968      8.09063      4.18954        -0.021418      0.045637      0.083886
Cr	      2.03201      0.02534      2.04969         0.049565      0.062357     -0.079912
Cr	      4.22470      2.03029      6.25872        -0.133310     -0.037520     -0.012408
Cr	      6.30695      6.14865      8.31054         0.020014     -0.044772      0.032212
Co	      0.13668      6.13465      6.23682        -0.077137      0.213846     -0.182984
Co	      6.31296      4.01778      6.26661        -0.042547     -0.063843     -0.088954
Ni	      2.15995      3.98614      2.13011         0.109422     -0.023871     -0.012422
Ni	      8.41062      8.10583      8.33082         0.026527     -0.038106      0.025703
O	      2.12844      1.96957      2.09132        -0.038770     -0.145018     -0.004365
O	      4.26038      4.06104      2.02675         0.101641      0.004021      0.044142
O	      4.23052      1.91488      4.26529        -0.036040     -0.298325      0.006237
O	      6.40711      4.01566      4.24196         0.113349     -0.012307     -0.081365
O	      6.21003      1.98008      6.24918         0.166146      0.093284      0.058708
O	      8.31028      4.06837      6.23508        -0.018207      0.030563     -0.187201
O	      1.94809      4.08362      4.13220        -0.022085      0.022776      0.177437
O	      4.18311      6.26557      4.17930         0.043292      0.045535      0.044067
O	      4.40117      3.99946      6.27535         0.079920      0.053885     -0.160315
O	      6.37275      5.96052      6.33657         0.005690     -0.007019     -0.037130
O	      6.32071      4.10524      8.28850        -0.029143      0.065780      0.113960
O	      8.29438      6.05880      8.25738        -0.044200     -0.006186     -0.058252
O	      2.11799      6.11612      6.36044        -0.099611     -0.057370      0.045675
O	      4.21201      8.32694      6.06527         0.250416     -0.179451     -0.040267
O	      4.20413      6.11025      8.44419        -0.032511      0.073255      0.098845
O	      6.37633      8.13217      8.32214        -0.191697      0.058951     -0.009403
O	      6.23784      6.01988     10.37088        -0.095727     -0.023747      0.038945
O	      8.58134      8.20269     10.39376         0.001917      0.105721      0.143067
