# total energy = -185.93251525 eV
 
CRYSTAL
PRIMVEC
4.166251 0.026465 4.169856 
-4.127661 4.139336 -0.012251 
-8.298582 -4.194681 4.109025 
PRIMCOORD
32 1
Li	     -7.18406     -2.97766      5.08920         0.005550      0.006323     -0.000323
Li	     -3.15189      0.95786      5.20085        -0.004268     -0.007109     -0.000813
Li	     -9.43185      0.85650      3.11053         0.003113      0.008889      0.007654
Li	     -0.92744      1.18231      3.08141        -0.015422      0.002999      0.007920
Li	     -7.34256     -1.15541      3.22095         0.007546     -0.002856      0.000469
Li	     -2.98586      3.16677      3.03975        -0.007399      0.004202      0.004933
Li	     -5.25085     -1.07647      5.21118         0.010570     -0.006416     -0.011965
Li	     -5.10894      3.11017      0.96723        -0.006065      0.003071      0.012905
Mn	     -3.08096      1.03426      1.01198         0.017702      0.017779     -0.000275
Mn	     -5.16973      1.02363      3.09664         0.005780     -0.008286      0.004583
Mn	     -5.14754     -3.14008      7.22356        -0.001502      0.020551     -0.002214
Mn	     -3.09168     -1.05834      3.09747         0.000088      0.000477      0.005118
Ni	     -7.25103      0.99466      5.17280         0.001827      0.044974     -0.027427
Ni	     -7.23439     -1.05437      7.21460         0.007549     -0.013990      0.045621
Ni	     -1.02410     -1.04691      5.16897         0.014958      0.015478      0.009044
Ni	     -9.29992     -1.06734      5.15486        -0.030083     -0.009146     -0.006042
O	     -5.04600     -0.93084      3.06883         0.033053      0.027964      0.100114
O	     -0.99713      3.24771      3.11706        -0.117265      0.034098      0.120325
O	     -7.27840     -1.01695      5.18443         0.122263     -0.120087     -0.119020
O	      1.04609     -0.91837      5.30880         0.123767      0.017752      0.014051
O	     -5.19700     -3.14968      5.31297        -0.106028      0.110603      0.043246
O	     -0.87193      1.02350      5.28865         0.023542      0.114775      0.008389
O	     -3.23024     -3.12854      7.25398        -0.041012      0.109459      0.105436
O	     -3.17627      0.92891      3.01209         0.002684     -0.019147     -0.001948
O	     -5.18074     -1.19005      7.26015         0.115300     -0.043688     -0.108408
O	     -1.14249     -1.16858      3.09169        -0.019052     -0.031001     -0.121146
O	     -3.05546     -1.05079      4.98534        -0.128519      0.089052     -0.067815
O	     -3.08039      2.91194      1.04228        -0.108765     -0.075499      0.092938
O	     -5.16004      1.05805      4.99383         0.102737     -0.118355     -0.058119
O	     -1.15025      1.02634      0.95155        -0.032073     -0.108207     -0.001968
O	     -7.10519      1.14061      3.04242         0.018243      0.035512     -0.097122
O	      1.14010      1.03042      3.26960         0.001182     -0.100170      0.041862
