# total energy = -226.27064362 eV
 
CRYSTAL
PRIMVEC
0.048332 6.220205 6.070394 
6.382466 0.044675 6.073722 
4.290735 4.183955 -0.005452 
PRIMCOORD
36 1
Li	      6.47851      4.14042      2.19819         0.049309      0.022995     -0.057834
Li	      4.28296      6.20421     10.05502        -0.033579     -0.001859      0.045845
Li	      6.50775      8.37716     10.06623        -0.020221     -0.001596     -0.009886
Li	      6.45974      6.13594      3.99827         0.027528     -0.035143     -0.006413
Li	      4.40809      4.14133      4.02182         0.030915     -0.012623      0.028921
Li	      4.23365      2.13216      5.98956        -0.074203      0.001540      0.013302
Li	      6.32096      4.29977     10.06794        -0.028351      0.014697      0.012142
Li	      8.49063      8.44931      8.19671        -0.040487      0.026327     -0.028643
Li	      6.40446      6.29519      8.20042        -0.052596      0.043452     -0.015520
Ti	      4.35657      6.21138      6.03751         0.128382     -0.088603      0.038769
Mn	      2.14715      4.17261      2.05685        -0.024861      0.041296     -0.005863
Cr	      4.34197      2.10224      2.14937         0.132194     -0.051089      0.045157
Cr	      6.42736      4.15921      6.01095         0.009491      0.044684     -0.078448
Cr	      8.48153      6.33423     10.09238         0.045223      0.014832     -0.081033
Co	      6.36493      0.08620      6.03876        -0.047718      0.028322     -0.123786
Co	      2.21837      8.31360      6.05158         0.014879      0.030831     -0.044368
Co	      2.20241      4.10104      6.00875         0.032136     -0.033488      0.044553
Cu	      4.30997      6.26329      2.10156        -0.056920     -0.019191      0.073351
O	      2.35247      2.20772      1.93768         0.136347      0.031489     -0.057256
O	      4.12901      4.17625      1.96268        -0.040789     -0.059920      0.039223
O	      4.26794      2.09313      3.92926        -0.018943      0.005249     -0.074872
O	      6.40343      4.16583      4.10688         0.009022      0.003860      0.031597
O	      6.61485      2.12989      6.20227         0.058352      0.002966     -0.039615
O	      8.47740      4.08195      6.15003        -0.049982      0.041554      0.057953
O	      2.15834      4.23722      3.98017        -0.015994     -0.017996     -0.053848
O	      4.19073      6.26260      4.09055         0.001569      0.004648      0.148287
O	      4.34319      4.27651      6.13603         0.017357      0.053821     -0.012562
O	      6.29460      6.22501      6.00018        -0.164614     -0.039847      0.028311
O	      6.59502      4.10695      8.06259         0.026287      0.028520      0.021175
O	      8.45245      6.11836      8.09207        -0.119260     -0.093537     -0.008179
O	      2.26910      6.33623      6.04003         0.080395      0.027974     -0.027563
O	      4.21280      8.30430      6.11510         0.013515     -0.043309      0.063007
O	      4.30897      6.35165      7.99572         0.020621      0.009060     -0.108242
O	      6.25449      8.38901      7.96050        -0.114150     -0.005223      0.021408
O	      6.51781      6.30365     10.19844         0.028066     -0.033794      0.054749
O	      8.56261      8.30150     10.19665         0.041079      0.059099      0.066181
