# total energy = -226.69965046 eV
 
CRYSTAL
PRIMVEC
0.008873 6.233855 6.156482 
6.157070 0.011298 6.154146 
4.107626 4.157231 0.004587 
PRIMCOORD
36 1
Li	      0.08287      6.19692      6.14860         0.042554     -0.023596     -0.008419
Li	      6.14783      4.18929      2.10538        -0.022825      0.018718      0.076010
Li	      8.11276      4.17062      4.07858        -0.066972      0.004469     -0.037892
Li	      6.16272      2.24091      4.13510         0.012926      0.088527     -0.018137
Li	      4.13998      6.16840      2.10091         0.020616     -0.060743      0.026971
Li	      6.04970      6.14466      4.16342        -0.027691      0.023685     -0.014893
Li	      4.21940      4.22009      4.09892         0.022113      0.032978     -0.036647
Li	      6.11985      8.31143      6.12086        -0.065134      0.029228     -0.058570
Li	      4.10927      6.26630      6.11140        -0.044214      0.056159     -0.030607
Ti	      4.17812      2.08169      2.16715        -0.065612      0.202213      0.069058
Mn	      2.08097      6.16661      4.17090         0.040901     -0.044905      0.026741
Cr	      8.20884      8.33067     12.29206         0.192046     -0.140721     -0.012288
Cr	      4.13581      2.06788      6.07908         0.046318     -0.064077     -0.051177
Cr	      4.08736      4.24003      8.19242        -0.012520     -0.003812      0.177403
Co	      2.04663      4.11757      2.06660         0.086795     -0.093139      0.156084
Co	      6.15373      4.17386      6.10844        -0.005540     -0.007702     -0.445943
Co	      4.13495      8.28138      4.12789         0.043047     -0.067723     -0.098690
Ni	      6.14900      6.25544      8.20662        -0.035384      0.032128      0.142561
O	      2.13101      2.19776      1.97803         0.055219     -0.000219     -0.019985
O	      3.96231      4.01812      2.05869        -0.019210     -0.146247      0.020451
O	      4.14562      2.04442      4.02781         0.048792     -0.027074     -0.001259
O	      6.15432      4.18546      4.23141        -0.020647      0.027574     -0.829336
O	      6.17084      2.21747      6.14926        -0.097419     -0.271692      0.286224
O	      8.11823      4.17939      6.26293        -0.105129      0.041743      0.013339
O	      1.95345      4.09949      3.97759         0.000862     -0.031973     -0.046029
O	      3.98626      6.33917      4.10456         0.015782     -0.021895     -0.015961
O	      4.19291      4.07483      6.22339         0.109468      0.038524      0.031266
O	      6.25974      6.12612      6.17695        -0.002722      0.258668      0.110540
O	      6.17395      4.18409      8.27074        -0.061230     -0.082700      0.492955
O	      8.21501      6.22293      8.14244         0.122292      0.086490     -0.075352
O	      2.03154      6.37174      6.14165         0.020654     -0.004592     -0.027327
O	      4.05894      8.31832      6.13179        -0.025153     -0.002014      0.184800
O	      4.10605      6.26199      8.20231        -0.058058      0.022169     -0.036862
O	      6.15685      8.33787      8.18418        -0.059526      0.078775      0.014750
O	      6.30011      6.08031     10.24364         0.013291      0.000396      0.098582
O	      8.32573      8.33909     10.23429        -0.098689      0.052378     -0.062362
