# total energy = -228.97605113 eV
 
CRYSTAL
PRIMVEC
-0.023551 6.408387 6.279044 
6.130998 0.007231 6.248403 
4.105049 4.269698 -0.012837 
PRIMCOORD
36 1
Li	      4.09701      4.34966      0.08411        -0.048521     -0.037572      0.022893
Li	      8.06421      2.27524      6.30718         0.147398      0.020934     -0.030462
Li	      2.03232      0.04030      2.10099        -0.005798     -0.022288     -0.015380
Li	      8.07578      4.34393      4.14099        -0.015854      0.068943      0.098807
Li	      6.11407      2.20774      4.26986        -0.017051      0.025928      0.000337
Li	      2.09515      4.12334      1.99774         0.010569     -0.011699     -0.077388
Li	      2.14091      2.09245      4.12952         0.057708     -0.017782      0.020555
Li	      6.20624      4.16363      6.19805         0.016569      0.088154     -0.009544
Li	      6.10112      6.51066      8.27689         0.027046      0.041166      0.027612
Ti	      6.13083      4.42028     10.41541        -0.080165      0.317344     -0.087861
Mn	      8.16113      6.41410     10.42647        -0.070684      0.056374     -0.078471
Cr	      0.06339      2.08827      2.06980        -0.095360     -0.097690     -0.169294
Cr	      4.12756      6.38498      6.26901        -0.022347     -0.091772      0.147539
Cr	      8.12195      8.59704      8.34724        -0.109107      0.084216     -0.022235
Co	      4.26759      4.15459      4.12618         0.255964     -0.204334     -0.169158
Co	      4.04799      2.12420      2.09212         0.028151     -0.053173      0.134547
Co	      8.17784      6.18156      6.20907        -0.032573      1.209288     -0.177223
Co	      6.12725      8.52094      6.24398         0.104967     -0.029298      0.080493
O	      2.02779      2.12242      2.03984        -0.164966      0.017201     -0.016325
O	      4.06282      4.32290      2.16090         0.052128      0.197291      0.114052
O	      4.12172      2.20179      4.20150        -0.019752      0.128332     -0.226939
O	      6.04202      4.30406      4.21935        -0.292475     -0.037092     -0.007506
O	      6.04586      2.15565      6.35935        -0.456859     -0.440542      0.247599
O	      8.14973      4.40657      6.24125         0.167588     -0.472736      0.142407
O	      1.98019      4.21381      4.28458        -0.068936      0.038030      0.040317
O	      3.99788      6.43587      4.18241         0.024025      0.062697     -0.073350
O	      3.97158      4.32118      6.30423         0.001493     -0.109557      0.055338
O	      6.13427      6.57941      6.26453         0.163907     -0.158720     -0.068368
O	      6.08358      4.17736      8.48886         0.002559     -0.068385      0.176493
O	      8.21974      6.55090      8.40973         0.113604     -0.026858      0.329081
O	      2.09709      6.23303      6.13519         0.028513     -0.028023     -0.047476
O	      4.16334      8.41515      6.17619         0.064521     -0.054699     -0.091407
O	      4.07555      6.33920      8.24383         0.025209     -0.068731     -0.144427
O	      6.12405      8.56323      8.18664         0.117456      0.063305     -0.163725
O	      6.22725      6.29324     10.43386        -0.021173     -0.340495      0.000812
O	      8.27128      8.61669     10.38253         0.112245     -0.047759      0.037659
