# total energy = -224.45045453 eV
 
CRYSTAL
PRIMVEC
0.001925 6.210298 6.178644 
6.255334 0.010040 6.170546 
4.190458 4.155053 -0.013713 
PRIMCOORD
36 1
Li	      4.18474      4.14117      0.04943         0.009558     -0.001277      0.040073
Li	      6.31533      4.12456      2.17427         0.036691      0.030818     -0.031253
Li	      4.16860      2.13506      2.12313        -0.014950      0.025184      0.003699
Li	      4.19064      6.24305     10.08798         0.016035      0.011867      0.055881
Li	      4.17280      6.17976      2.24238        -0.017446      0.018351     -0.117847
Li	      1.96781      2.12635      3.99662        -0.068421      0.032303      0.028159
Li	      6.33899      4.12601     10.15437        -0.034059     -0.049908      0.027265
Li	      8.39630      6.18124     10.17900        -0.000316      0.055621      0.019730
Li	      6.23676      6.22096      8.30682         0.005086     -0.012807     -0.033168
Ti	      2.18369      8.18118      6.24430        -0.009225      0.000308      0.083563
Mn	      8.40674      6.18809      6.18083         0.016091     -0.050514     -0.000249
Cr	      6.29178      8.20055     10.25411         0.035908     -0.086378      0.016131
Cr	      6.22721      8.31255      6.14620        -0.016015      0.084733     -0.057872
Cr	      4.19529      6.21179      6.15800         0.007372      0.007327     -0.072593
Fe	      6.29271      4.17306      6.16422        -0.042497      0.020220     -0.059867
Co	      2.08436      4.15757      2.08318         0.107929     -0.014404      0.132525
Cu	      8.40471      8.34007      8.31916         0.129818     -0.143773      0.117113
Ni	      4.14369      4.21040      4.00269         0.066921     -0.092601      0.007982
O	      2.06392      2.19060      1.94819        -0.001266     -0.060705     -0.127141
O	      3.97744      4.13981      2.04878        -0.094720      0.002019     -0.160243
O	      4.33542      2.07560      4.24689         0.001928     -0.048593     -0.047066
O	      6.24204      4.02607      4.18948         0.098745      0.044258     -0.102024
O	      6.34471      2.11039      6.08625         0.010921     -0.062701      0.050864
O	      8.30895      4.11018      6.29378         0.078786     -0.017843     -0.034186
O	      2.06876      4.18728      4.11738        -0.084322     -0.048049     -0.014896
O	      4.16808      6.22466      4.19582        -0.042709      0.137042      0.070990
O	      4.10937      4.14557      6.07411        -0.046275      0.100100      0.003481
O	      6.25849      6.26823      6.10022        -0.105415      0.053875      0.017484
O	      6.28899      4.15892      8.10300         0.092261     -0.008536      0.127844
O	      8.36904      6.18636      8.07475        -0.069446      0.016943     -0.006359
O	      2.14572      6.24619      6.22849         0.048909      0.064496      0.009004
O	      4.16247      8.23214      6.16188        -0.047448     -0.050428      0.067356
O	      4.20403      6.13435      8.13373        -0.030308      0.120782     -0.042850
O	      6.34237      8.31809      8.21440        -0.093525     -0.057363     -0.082594
O	      6.27474      6.41123     10.29094         0.017707     -0.045713      0.029976
O	      8.22252      8.36049     10.47270         0.037700      0.025347      0.081086
