# total energy = -225.04216319 eV
 
CRYSTAL
PRIMVEC
0.005465 6.149315 6.096275 
6.548092 -0.006563 6.107147 
4.357482 4.098689 0.003753 
PRIMCOORD
36 1
Li	     10.72900      4.03005      6.10692        -0.020082     -0.021986      0.020842
Li	      8.76973      8.21687     12.18631        -0.020081     -0.014450     -0.005032
Li	      4.51446      8.20627      8.18062         0.026376      0.078842     -0.018003
Li	      6.45437      2.07294      4.13888        -0.039946      0.017827      0.019432
Li	      4.40664      3.93261      4.10998        -0.106370      0.008713     -0.017499
Li	      4.42989      2.08948      5.98093         0.042222     -0.009200      0.061923
Li	      6.55036      4.10515      6.04001         0.006969      0.020909     -0.022659
Li	      2.20755      4.11619      6.11029        -0.023007      0.010977      0.000761
Li	      4.27790      4.16928      8.11392         0.001784     -0.038098     -0.009122
Ti	      6.49605      1.96912      7.97542         0.024561     -0.099465     -0.355975
Mn	      8.68772      4.04790      8.02285         0.049646      0.024533      0.190999
Cr	      4.33466      8.20976      4.10843         0.126548      0.023962     -0.050219
Cr	      8.68471      6.21243     10.23814        -0.048543     -0.091236     -0.009840
Cr	      4.33839      6.09318      6.13655         0.068927     -0.131980     -0.025948
Fe	      6.54504      6.34768      8.07484         0.210643     -0.227974      0.000643
Co	      8.71518      4.11921      4.10909        -0.178759      0.041770      0.128530
Cu	      6.54827     10.16724      8.14937        -0.076204     -0.030725     -0.000206
Cu	      2.32761      2.02292      4.12965        -0.128203      0.060228      0.101591
O	      6.60324      8.21348      8.13537        -0.006669      0.146816      0.070364
O	      1.89406      1.91542      2.13256        -0.051471      0.093430     -0.081072
O	      4.08152      4.14937      2.05398        -0.057234      0.097467     -0.037488
O	      4.41384      1.89823      4.07855         0.309157      0.006161     -0.086261
O	      6.79095      4.12280      4.00649         0.146116      0.024205     -0.010735
O	      6.51905      2.03082      6.20470        -0.028477     -0.012917      0.338346
O	      8.71497      4.08377      6.07872         0.032204     -0.102499      0.001838
O	      2.02881      4.13293      3.97128        -0.064217      0.010760     -0.006643
O	      4.14022      6.21215      4.11461        -0.097853     -0.073720     -0.037812
O	      4.40548      4.27341      6.06317        -0.026045      0.048998      0.012346
O	      6.36131      6.16399      6.12003         0.008783      0.023070     -0.085366
O	      6.71159      4.04963      8.15751        -0.111516     -0.041668      0.030157
O	      8.77081      6.21844      8.21636        -0.038642      0.028983     -0.025716
O	      2.38615      6.14843      6.13223         0.048472      0.022225     -0.015674
O	      4.38729      8.05178      6.06367        -0.075142      0.010261      0.039222
O	      4.58634      6.15432      8.18125         0.049820     -0.026004     -0.201693
O	      6.62292      6.11035     10.13551         0.000665     -0.003515      0.058024
O	      8.88005      8.22587     10.18333         0.045568      0.125301      0.027943
