# total energy = -225.59932306 eV
 
CRYSTAL
PRIMVEC
0.007136 6.267831 6.305674 
6.221410 0.008961 6.304052 
4.142298 4.172106 0.011362 
PRIMCOORD
36 1
Li	     10.22470      4.18612      6.21887        -0.042414      0.037401     -0.083659
Li	      2.21066      6.30443      8.41476        -0.030092     -0.041152      0.039962
Li	      4.13764      8.20970      8.42942         0.034362     -0.037436      0.048337
Li	      4.30274      6.16245     10.39811        -0.023269     -0.003006      0.024551
Li	      8.29763      4.20405      8.28279         0.012498      0.019713     -0.014365
Li	      8.31514      6.16461      6.35893         0.015336      0.001092     -0.015173
Li	      6.09443      4.34182     10.44757         0.015522     -0.056392     -0.011339
Li	      4.19648      4.30765      8.52640        -0.048179     -0.045573      0.041869
Li	      6.07340      6.23676      8.53282         0.021286      0.033965     -0.013349
Ti	      6.11970      8.38145      6.49662        -0.025719      0.066562      0.669961
Mn	      4.14997      4.17498      4.19078        -0.028314     -0.136729     -0.030383
Cr	      2.09042      2.11421      4.15562         0.155897      0.074640     -0.033464
Cr	      6.26283      4.18787      6.34248        -0.057570     -0.015935      0.083795
Cr	      8.24890      6.28572     10.48402         0.181004      0.064473     -0.096690
Fe	      6.20011      2.10573      8.34710         0.041720      0.023441     -0.023859
Co	      6.23814      8.31210     10.43835        -0.018603     -0.195430     -0.048150
Ni	      8.33599      2.14686      6.31019         0.032093     -0.081804      0.027124
Ni	      4.14851      6.26975      6.46585         0.005698     -0.068277     -0.110927
O	      4.14806      6.26230      8.42200        -0.006833     -0.013876      0.151835
O	      1.92513      2.09753      2.16129         0.207090      0.008444      0.045417
O	      4.14570      4.33906      2.28460         0.026028     -0.178617      0.051422
O	      4.10056      2.27778      4.12968        -0.107094      0.113813      0.008876
O	      6.08116      4.25760      4.29526         0.042088      0.023652     -0.085135
O	      6.24052      2.17663      6.32307        -0.092334      0.026008     -0.071851
O	      8.20223      4.16907      6.26870         0.087302      0.075797     -0.023879
O	      2.20607      4.15755      4.28996        -0.013761     -0.002146      0.034039
O	      4.17417      6.15547      4.24421        -0.027616      0.018920      0.004439
O	      4.13075      4.19060      6.15845         0.000404     -0.078446     -0.044471
O	      6.23156      6.29652      6.20149         0.091038      0.027523      0.024957
O	      6.22368      4.02983      8.31371        -0.006921      0.221828     -0.000437
O	      8.46937      6.26672      8.52161        -0.282895     -0.019477      0.011444
O	      2.08834      6.15770      6.22924        -0.125406     -0.123415      0.027714
O	      4.24931      8.33443      6.32428         0.143326      0.115094      0.022729
O	      6.25404      8.35109      8.31565        -0.079494      0.013108     -0.592019
O	      6.33185      6.25841     10.47366        -0.167454      0.130080      0.046106
O	      8.28323      8.24216     10.58284         0.071274      0.002158     -0.065422
