# total energy = -227.80639259 eV
 
CRYSTAL
PRIMVEC
-0.034214 6.162152 6.310903 
6.239380 -0.030953 6.307732 
4.167033 4.113589 -0.028406 
PRIMCOORD
36 1
Li	     10.31812      4.10980      6.26467         0.000056     -0.001511      0.019044
Li	      4.11972      2.14210      2.30123         0.020707      0.032418      0.080747
Li	      8.30356      4.21521      4.29462        -0.011045     -0.051286      0.009833
Li	      6.04071      1.98034      4.36734        -0.022989     -0.002144      0.041413
Li	      2.23542      4.06502      2.00127         0.057569     -0.014107     -0.036649
Li	      4.20878      4.02474      4.15903         0.017431      0.041453      0.009294
Li	      4.14730      1.97219      6.20212        -0.032713      0.013116      0.054063
Li	      6.31939      4.06075      6.12122         0.031791     -0.013472     -0.041412
Li	      8.23527      6.11465     10.49862         0.016263      0.004548     -0.060848
Ti	      8.26039      8.18290      8.48416        -0.012958     -0.068040      0.162031
Mn	      6.25525      1.98187      8.33832         0.032115      0.013858      0.026321
Cr	      6.24956      4.14237      2.16498         0.006300      0.011810     -0.001482
Cr	      6.22881      4.08508     10.48600        -0.105735      0.037589      0.183782
Cr	      6.18793      6.14217      8.42579         0.009775      0.072408     -0.212086
Fe	      2.07862      4.13206      6.21948        -0.020095     -0.032038      0.144512
Co	      8.30269      2.08534      6.25777         0.212906     -0.280922     -0.121424
Co	      2.12952      2.03823      4.19870         0.114660     -0.108818     -0.038808
Cu	      4.12522      6.15837      6.24744         0.095382      0.001797     -0.090542
O	      2.16798      1.99119      2.20412         0.003216      0.078691      0.104235
O	      4.28962      4.19805      2.04957        -0.021093     -0.134917      0.048605
O	      4.02218      2.06818      4.28032        -0.093306      0.016625      0.029669
O	      6.23716      4.22609      4.11602         0.009606      0.029204      0.021969
O	      6.39158      2.02473      6.40768        -0.146120      0.055500     -0.097551
O	      8.34520      3.87722      6.31343        -0.072980      0.224673     -0.000272
O	      2.00736      4.03746      4.26864         0.019639      0.061005     -0.113633
O	      4.27612      6.22162      3.96037        -0.011208     -0.014457      0.012851
O	      4.03630      4.18044      6.45940         0.038326     -0.098756      0.021722
O	      6.12153      6.23008      6.28248         0.024089     -0.008929      0.112334
O	      6.10543      4.10481      8.44358        -0.037150      0.000790     -0.039758
O	      8.20501      6.23051      8.31842        -0.042527      0.062411     -0.017344
O	      2.13084      6.20717      6.39347        -0.158131      0.053228      0.085098
O	      4.11311      8.16783      6.14688         0.021893      0.059126     -0.138364
O	      4.14310      6.02173      8.51674        -0.002252     -0.033496      0.116451
O	      6.25218      8.20092      8.35351         0.009075      0.000922     -0.031420
O	      6.24065      6.06245     10.36990         0.006791      0.026655      0.028616
O	      8.36586      8.11734     10.40378         0.042713     -0.034934     -0.270995
