# total energy = -230.96002215 eV
 
CRYSTAL
PRIMVEC
-0.002961 6.298596 6.326268 
6.235025 0.005422 6.317934 
4.159951 4.196758 0.000327 
PRIMCOORD
36 1
Li	      2.10361      2.08642      0.06860         0.033599     -0.051724      0.003457
Li	      2.21195      6.32736      8.39299        -0.000302      0.011165     -0.021528
Li	      4.13652      8.28333      8.48281         0.008968      0.023924      0.013523
Li	      2.03398      2.18595      4.20526        -0.049688      0.012129      0.007191
Li	      4.10549      4.20063      4.28935        -0.011023      0.033951     -0.028848
Li	      4.12297      2.12169      6.28422        -0.029734      0.004594      0.014375
Li	      2.16208      4.17196      6.27825         0.013228      0.009237     -0.101185
Li	      4.14249      6.27361      6.39699        -0.014026      0.011206      0.016811
Li	      4.07327      4.30194      8.38862         0.010987      0.016365     -0.002700
Ti	      4.27601     10.34928      6.39241         0.452460     -0.411586      0.091853
Mn	      6.21351      2.13471      4.18405        -0.016056      0.090174     -0.068814
Cr	      4.13254      0.03104      4.19279        -0.018565     -0.045552      0.011332
Cr	      6.23076      2.11498      8.41403        -0.122444     -0.065328      0.054337
Cr	      6.11905      4.25734      6.29796        -0.129382      0.147466      0.008676
Fe	      2.07755      4.13422      2.15456         0.045575      0.216219      0.005686
Co	      6.20559      6.39106      8.33191        -0.016497      0.051900     -0.028662
Co	      4.15035      8.31385      4.24997         0.127078     -0.019392      0.069902
Co	      2.11315      6.31155      4.22312         0.219419     -0.245408      0.037055
O	      1.98823      2.19277      2.11163         0.022693     -0.193839     -0.047214
O	      4.09770      4.28562      1.96070         0.063511      0.030327     -0.126255
O	      4.31604      2.02743      4.21966         0.007851      0.055443      0.032508
O	      6.28342      4.07076      4.29628        -0.003096     -0.104034     -0.018305
O	      6.24937      2.17100      6.27924        -0.005122      0.037189     -0.039625
O	      8.29335      4.19276      6.28763         0.007607      0.009786     -0.015694
O	      2.03393      4.23655      4.13915        -0.145358      0.045152      0.066377
O	      4.16186      6.32283      4.07091        -0.233785      0.027682      0.036985
O	      4.32053      4.18401      6.30863         0.054203     -0.016361     -0.000371
O	      6.25659      6.10484      6.27681         0.028288     -0.117882     -0.017934
O	      6.25769      4.15371      8.31583        -0.061644     -0.036893      0.000619
O	      8.32107      6.19980      8.45014         0.116419      0.031846     -0.146216
O	      1.96904      6.28029      6.31147        -0.361260      0.080750      0.067994
O	      4.17604      8.51959      6.31928        -0.019745      0.270007     -0.034013
O	      4.20712      6.29971      8.54859        -0.014363     -0.003501     -0.002239
O	      6.24374      8.39898      8.63694         0.020253     -0.002350      0.130852
O	      6.16090      6.42487     10.65050         0.079426      0.035030      0.039659
O	      8.23886      8.45478     10.55357        -0.059472      0.062307     -0.009589
