# total energy = -222.11271121 eV
 
CRYSTAL
PRIMVEC
0.003471 6.257796 6.200532 
6.232178 -0.012801 6.216953 
4.148430 4.176160 -0.001982 
PRIMCOORD
36 1
Li	      4.15745     10.39445      6.19733         0.051548      0.031232     -0.047286
Li	      2.15493      8.33705      6.18445         0.041232     -0.106208      0.016649
Li	      4.13453      8.36759      8.22329        -0.018651      0.019244     -0.045070
Li	      6.22713      2.11102      4.25045        -0.037572      0.032374      0.011979
Li	      6.22006      6.20492      4.15699         0.024599     -0.069498      0.040217
Li	      4.18276      4.16453      4.18634         0.086047      0.038220     -0.046552
Li	      4.20458      2.10267      6.13653        -0.038607      0.010165      0.010876
Li	      4.13255      8.31266      4.23891        -0.018128      0.041944     -0.029822
Li	      4.11596      6.30314      6.10992         0.028122      0.048455     -0.065362
Ti	      6.12569      6.35143      8.24304        -0.086123      0.164136      0.182594
Mn	      0.02187      2.07211      2.04404         0.044345     -0.038776      0.122575
Cr	      8.28400      4.24073      4.24361         0.356285     -0.024591      0.496834
Cr	      2.12203      4.11780      2.04903         0.067558      0.039040      0.164731
Cr	      2.10174      6.31682      4.17794        -0.140553      0.070067     -0.116595
Fe	      2.00083      4.19741      6.10261         0.088591     -0.138677     -0.062011
Cu	      4.13864      4.18828      8.24544        -0.050026      0.059477      0.220631
Ni	      2.07578      6.26891      8.23949        -0.036917      0.002635      0.188688
Ni	      6.16266      4.11866      6.16422        -0.057149      0.097283     -0.252379
O	      1.93990      2.11863      2.09538        -0.158662      0.047585     -0.087737
O	      4.13609      4.31752      2.06952        -0.115066      0.087829     -0.033624
O	      4.17895      1.86935      4.15733        -0.141817      0.042098     -0.044468
O	      6.37701      4.13274      4.10703        -0.493022      0.137165     -0.070760
O	      6.19552      2.10272      6.38576         0.038284     -0.172228      0.162552
O	      8.25867      4.12306      6.18883         0.226123     -0.037460     -0.368033
O	      2.11933      4.26477      4.09017        -0.021848      0.042863     -0.045556
O	      4.06719      6.29082      3.99375        -0.022274     -0.020401     -0.178169
O	      4.09540      4.16628      6.30919        -0.133693     -0.012345     -0.107573
O	      6.21933      6.24506      6.35497         0.023347      0.089925      0.185681
O	      6.32731      4.12858      8.25089         0.057446     -0.138303      0.024740
O	      8.31651      6.12731      8.36431         0.132866     -0.186809     -0.081044
O	      2.10328      6.21953      6.16989        -0.016722      0.024852     -0.021888
O	      4.27307      8.33482      6.21762        -0.236098      0.037518      0.043127
O	      4.21873      6.29965      8.40001         0.235065     -0.025683      0.093407
O	      6.22535      8.26094      8.22576         0.008758     -0.225297     -0.073079
O	      6.21745      6.24504     10.22051         0.349714      0.062243     -0.151787
O	      8.31385      8.37189     10.23517        -0.037001     -0.030076     -0.036487
