# total energy = -222.78487846 eV
 
CRYSTAL
PRIMVEC
-0.004229 6.377194 6.213427 
6.293521 0.023503 6.185550 
4.207306 4.244519 0.004206 
PRIMCOORD
36 1
Li	      4.18837      4.30057      0.10844        -0.002794      0.054925     -0.012985
Li	      6.17385      4.40927      2.09633        -0.161690      0.126974     -0.010293
Li	      4.11770      2.19229      2.08323        -0.056423      0.093668      0.052219
Li	      0.10181      2.00542      1.94329         0.006344     -0.061884     -0.057078
Li	      6.33393      6.26811      4.06253         0.010901     -0.007013     -0.035134
Li	      4.29575      4.21432      4.10762         0.018292     -0.080029     -0.062234
Li	      4.23490      2.19698      6.17221         0.031892      0.016156     -0.017082
Li	      6.24676      4.21836      6.15435         0.001295     -0.046272     -0.021465
Li	      4.24331      6.35734      6.25989        -0.021327     -0.012606      0.039147
Ti	      2.25370      6.33430      4.21026         0.216307     -0.116611      0.138996
Mn	      6.28267      6.38087      8.24299        -0.151274     -0.046575      0.133154
Cr	      6.19653      2.21649      4.17947         0.368977     -0.018351     -0.080583
Cr	     10.48795      8.54329     10.35218         0.078421      0.005383     -0.027280
Cr	      6.27474      8.48427      6.27102         0.155453      0.042595     -0.165904
Fe	      2.22832      4.15007      1.91154        -0.097093      0.100188      0.045462
Cu	      8.29886      4.37624      4.18344         0.053892      0.293499      0.179455
Cu	      4.19797      4.28323      8.18413         0.079633      0.042378      0.175955
Ni	      2.09708      2.12458      0.05333         0.005776     -0.088290     -0.036562
O	      6.34008      4.12372      4.06914        -0.079736      0.094570      0.033715
O	      2.08298      2.23004      2.05789        -0.014153     -0.200174      0.138873
O	      4.07078      4.28201      2.09609         0.329786      0.032746      0.017248
O	      4.34095      2.14239      4.15891        -0.489208     -0.188090     -0.006799
O	      6.36653      2.13383      6.07170        -0.100519      0.031143      0.123138
O	      8.39607      4.21640      6.13771        -0.044967      0.099557      0.027137
O	      2.00937      4.35164      4.21633        -0.038096      0.117125      0.010090
O	      4.09130      6.49981      4.09615        -0.162721      0.004110      0.052431
O	      4.06011      4.29122      6.29395        -0.118770     -0.003630     -0.196068
O	      6.26831      6.48461      6.37506        -0.006869      0.029193     -0.038475
O	      6.40185      4.44083      8.32331        -0.177931      0.064827     -0.050084
O	      8.26439      6.31262      8.35896        -0.088436      0.055930     -0.112860
O	      2.08209      6.32485      6.10406         0.037674     -0.106117     -0.078772
O	      4.22508      8.49684      6.10995         0.074400     -0.034132      0.071565
O	      4.36460      6.33872      8.42928         0.183512     -0.103476     -0.345397
O	      6.25797      8.32281      8.28856         0.044437     -0.037933      0.080008
O	      6.38456      6.39067     10.23027         0.064020     -0.115111     -0.026752
O	      8.41416      8.36308     10.25866         0.050996     -0.038672      0.063213
