# total energy = -186.21476665 eV
 
CRYSTAL
PRIMVEC
4.157837 0.013970 4.177187 
-4.143981 4.143526 0.000075 
-8.295166 -4.150738 4.142626 
PRIMCOORD
32 1
Li	     -7.18495     -3.04080      5.02169         0.001789      0.002238     -0.004138
Li	     -3.16889      0.97518      5.23384        -0.008404     -0.007120      0.005035
Li	     -9.49289      0.93681      3.17300         0.013197      0.007496      0.002004
Li	     -0.92143      1.14007      3.10923        -0.010750     -0.002161     -0.000591
Li	     -7.35164     -1.20524      3.17299         0.006384      0.016746      0.001452
Li	     -3.00280      3.22199      3.10918        -0.003658     -0.008448      0.001250
Li	     -5.16618     -1.02197      5.26542         0.005115      0.001046     -0.007290
Li	     -5.15586      3.13200      0.96642        -0.003008     -0.003689      0.014067
Mn	     -3.08540      1.05867      1.03632         0.014382      0.008588     -0.016147
Mn	     -5.17662      1.05053      3.12538        -0.005456      0.000518      0.010458
Mn	     -3.09310     -1.03269      3.12513         0.000168     -0.006889      0.015076
Mn	     -9.31132     -1.02359      5.20021        -0.002025      0.005154     -0.022519
Ni	     -7.26809      1.01967      5.21519        -0.003898      0.001056     -0.070016
Ni	     -5.15681     -3.10562      7.26661        -0.039208      0.010226      0.014739
Ni	     -7.24987     -1.01248      7.26657         0.009468     -0.042237      0.016117
Ni	     -1.03281     -1.03269      5.19970         0.016708      0.014755      0.012523
O	     -5.04986     -0.90629      3.09111         0.037375      0.034521      0.103794
O	     -1.02420      3.11927      3.00406        -0.109365     -0.111156     -0.018182
O	     -7.40236     -1.05205      5.19815        -0.032399     -0.108539     -0.103920
O	      1.05805     -0.88329      5.33442         0.092362      0.021916      0.029296
O	     -5.19608     -3.25794      5.19833        -0.107081     -0.032747     -0.106154
O	     -0.88305      1.05771      5.33472         0.018390      0.093368      0.024727
O	     -3.12955     -3.12896      7.22299         0.126906      0.125568      0.124236
O	     -3.19668      0.94746      3.06308        -0.006376     -0.011149      0.000246
O	     -5.19107     -1.04677      7.42631         0.102148      0.100473      0.029069
O	     -1.14031     -1.14040      3.12283        -0.023368     -0.021214     -0.107648
O	     -3.07863     -1.03875      5.02155        -0.101622      0.098467     -0.067280
O	     -3.01343      2.98415      1.07078        -0.002904     -0.027268      0.087510
O	     -5.18303      1.06496      5.02148         0.101911     -0.104137     -0.063424
O	     -1.15951      1.13028      1.07065        -0.029820     -0.004484      0.089611
O	     -7.10846      1.17867      3.06634         0.031492      0.037401     -0.080902
O	      1.04180      1.04152      3.35069        -0.088455     -0.088299      0.087001
