# total energy = -223.09225671 eV
 
CRYSTAL
PRIMVEC
0.010601 6.197407 6.333733 
6.306791 0.006326 6.338050 
4.188301 4.118029 0.020642 
PRIMCOORD
36 1
Li	      4.22627      6.20327     10.54458        -0.039544     -0.019281     -0.082426
Li	      4.13425      6.20023      2.20675        -0.030051     -0.020095      0.079690
Li	      4.16566      4.15248      4.29490         0.065708     -0.041219      0.022402
Li	      8.35634      6.21355      6.39766        -0.005132      0.064110      0.035838
Li	      6.30884      4.14155      6.36836         0.008629     -0.017865     -0.006508
Li	      2.15452      6.15748      4.22284         0.002821      0.011287     -0.038577
Li	      2.18930      4.15050      6.25553         0.118988      0.016185     -0.025983
Li	      4.18899      6.15690      6.33718        -0.009133     -0.047522      0.020501
Li	      6.32990      6.13398      8.39754         0.018311     -0.007536     -0.046567
Ti	      6.20356      6.23274      4.39862        -0.142895      0.001468      0.108265
Mn	      6.29466      2.07145      4.23613        -0.080839      0.034929      0.124240
Cr	      2.12178      6.19476      8.44525        -0.020449      0.064216     -0.100927
Cr	      4.22838      8.19233      8.45634         0.035404     -0.018713     -0.014230
Cr	      4.26879      4.02970      8.34653        -0.446644     -0.072412      0.156412
Fe	      6.30229      6.21222     12.64544         0.072340      0.135394      0.091430
Cu	      8.39449      2.08458      6.33288        -0.125291     -0.040465     -0.090220
Cu	      8.37135      4.19337      8.46756         0.057231      0.140172      0.076543
Cu	     10.46380      8.25373     10.55434        -0.055063      0.123302      0.263457
O	      6.18941      4.14094      8.57700         0.101537     -0.011385      0.007470
O	      8.41827      6.32060      8.46307         0.009452     -0.036734      0.034437
O	      2.23297      1.97244      2.28399         0.001589     -0.177545      0.107890
O	      4.27217      4.02279      2.04211         0.190624      0.097316     -0.012110
O	      4.26976      2.05709      4.12352         0.050688     -0.053520      0.017803
O	      6.27903      4.07766      4.16967        -0.014767      0.178677     -0.012394
O	      6.36224      2.05814      6.15322         0.039441      0.080858     -0.089431
O	      8.45858      4.06627      6.52802        -0.147472      0.008232     -0.021919
O	      2.15625      4.03878      4.11414         0.225621     -0.067156      0.099160
O	      4.32631      6.18700      4.24892         0.118880      0.051168      0.054772
O	      4.20191      4.16652      6.55177         0.112611      0.004091     -0.079866
O	      6.35249      6.20187      6.19732         0.018766     -0.007266     -0.223821
O	      2.03015      6.26913      6.42884         0.074648      0.031219     -0.003614
O	      4.13948      8.30523      6.32475        -0.006654     -0.175065     -0.058516
O	      4.12021      6.17920      8.42469         0.035055      0.022358     -0.023216
O	      6.27656      8.28182      8.57659        -0.030822     -0.048996     -0.125617
O	      6.29780      6.31566     10.65095        -0.051591     -0.232002     -0.154659
O	      8.23892      8.30043     10.35802        -0.151994      0.029795     -0.089712
