# total energy = -223.43649110 eV
 
CRYSTAL
PRIMVEC
-0.002942 6.230714 6.216626 
6.121977 -0.022894 6.236510 
4.091926 4.177725 -0.025789 
PRIMCOORD
36 1
Li	      2.03393      8.24812      6.21139        -0.042163     -0.017730      0.005398
Li	      6.11258     10.38742      8.24174         0.006436     -0.011934     -0.048781
Li	      4.10749      8.33922      8.25593         0.021278      0.020988     -0.041975
Li	      6.13659      8.30249     10.36408         0.032164     -0.009353      0.043930
Li	      6.11408      6.22661      4.17312         0.007784     -0.003806      0.020773
Li	      6.11531      4.15751      6.17486         0.020697     -0.000316      0.014175
Li	      4.08548      8.33016      4.17131         0.020388      0.024885     -0.001701
Li	      2.06814      6.23660      4.20779         0.023930     -0.039433     -0.016171
Li	      6.10264      8.34805      6.20105         0.000218      0.046050     -0.014101
Ti	      2.00175      4.00333      2.17808        -0.076448     -0.366262      0.323505
Mn	      8.11799      8.33290      8.28234         0.510602      0.056478     -0.042174
Cr	      0.06357      6.19648      6.18515         0.010896     -0.064499     -0.023971
Cr	      8.09494      4.16938      4.11930        -0.129604      0.007739      0.075552
Cr	      4.04977      2.09350      6.20586        -0.007038     -0.056935     -0.010583
Fe	      4.05772      6.38179      6.08447         0.027455     -0.095310      0.110700
Ni	      4.10594      6.24260      2.07869         0.007249      0.060691      0.097121
Ni	      4.16950      4.14359      4.13602         0.025018     -0.111422      0.020151
Ni	      6.11278      6.26500      8.30553         0.000038     -0.059070      0.104938
O	      2.03202      2.19150      2.06124         0.173543      0.322791      0.012954
O	      3.99230      4.18123      2.00609        -0.008601     -0.142947     -0.057745
O	      4.07938      1.97285      4.21871        -0.006705     -0.070581     -0.067547
O	      6.23906      4.15011      4.13142         0.121372     -0.035602     -0.021148
O	      6.05298      1.95661      6.28393        -0.019067      0.009131     -0.146944
O	      8.21024      4.22621      6.17874        -0.037319      0.000168      0.041431
O	      2.10710      4.17831      3.99260        -0.128334     -0.039345     -0.354941
O	      4.10480      6.16240      4.15961         0.014809      0.115293     -0.013052
O	      4.10019      4.12508      6.32258        -0.038328     -0.001929     -0.050577
O	      6.09454      6.24356      6.26124         0.094882      0.018680     -0.133883
O	      6.14099      4.15695      8.30185         0.104582     -0.014951     -0.004973
O	      8.16967      6.35317      8.22934        -0.036012     -0.038939     -0.009749
O	      2.06473      6.25749      6.19216        -0.067817     -0.031921      0.022798
O	      4.09378      8.31425      6.20365        -0.020120      0.180637      0.004198
O	      4.08241      6.08942      8.32857        -0.162520      0.115598      0.006359
O	      6.30628      8.28488      8.30646        -0.466641      0.167621     -0.027963
O	      5.95636      6.21017     10.42183         0.041711      0.020078      0.020600
O	      8.17826      8.45528     10.17478        -0.018336      0.045460      0.163394
