# total energy = -229.88912332 eV
 
CRYSTAL
PRIMVEC
-0.004547 6.159722 6.301802 
6.293782 0.009386 6.287565 
4.203171 4.104376 -0.000792 
PRIMCOORD
36 1
Li	      6.33891      0.14821      6.26717         0.047974      0.008366      0.012365
Li	      8.25831      2.12642      6.29514         0.027309     -0.003246      0.028277
Li	      2.12556      6.17033      8.39939        -0.011069      0.020183     -0.076798
Li	      8.31920      4.13455      4.32654         0.037171      0.009927      0.078584
Li	      6.36313      6.06181      4.18177        -0.005500     -0.003563     -0.018308
Li	      4.34135      3.98886      4.14476         0.006733      0.020335      0.002113
Li	      8.44371      6.08292      6.25885         0.010791     -0.002800      0.051199
Li	      8.33248      6.20565     10.49522        -0.009430      0.031013     -0.002664
Li	      6.29008      6.21787      8.40123         0.012513     -0.008150     -0.019775
Ti	      4.14978      6.11389      6.15690        -0.062028      0.056686     -0.150931
Mn	      4.21777      8.17913      8.44069        -0.003107      0.018882     -0.034660
Cr	      4.23733      6.13361      2.15519         0.025786     -0.029188     -0.002014
Cr	      2.13346      4.05521      6.20527        -0.013054     -0.081036     -0.001000
Cr	      8.35928      8.21623      8.41691         0.004945     -0.031282      0.030941
Fe	      2.13228      4.13568      2.10845        -0.124929      0.012151      0.020346
Fe	      6.22606      4.34115     10.52008        -0.033539     -0.267501     -0.001848
Co	      6.31742      4.08867      6.28649         0.093672      0.057814     -0.026544
Cu	      6.29932      2.02417      4.26020        -0.036526     -0.090024     -0.011835
O	      2.06392      2.11509      2.13588        -0.038713     -0.099976     -0.000659
O	      4.12980      4.10750      2.07885         0.061583     -0.031647      0.017478
O	      4.28370      2.01551      3.98578        -0.039160     -0.011393      0.057289
O	      6.31008      3.97540      4.41308         0.016855      0.053636      0.029203
O	      6.29233      2.18337      6.48138        -0.031245     -0.005260      0.050136
O	      8.19610      4.14127      6.42885         0.017416      0.007040     -0.084886
O	      1.94955      4.12481      4.18144         0.030882     -0.018825      0.041918
O	      4.19522      6.21304      4.23994        -0.019634      0.006302      0.213880
O	      4.20336      4.12887      6.32320        -0.064566      0.115678      0.004611
O	      6.18595      6.11255      6.22914        -0.076315      0.027950      0.012122
O	      6.25364      4.09383      8.40799        -0.066310     -0.011468     -0.013063
O	      8.50104      6.18716      8.42773        -0.030026      0.051876     -0.000322
O	      2.24274      6.06307      6.24712         0.177697      0.033201     -0.010662
O	      4.29102      8.14520      6.33079         0.025096     -0.090105      0.039641
O	      4.19143      6.15344      8.20059         0.017729     -0.054794     -0.024454
O	      6.38403      8.18794      8.19361         0.047028      0.033290     -0.118700
O	      6.26539      6.19756     10.55627         0.026769      0.261002     -0.050277
O	      8.43845      8.25460     10.39783        -0.022796      0.014925     -0.040700
