# total energy = -230.11257115 eV
 
CRYSTAL
PRIMVEC
0.016550 6.220619 6.204519 
6.311624 0.018028 6.203148 
4.221634 4.159877 -0.001651 
PRIMCOORD
36 1
Li	      8.35269      2.12318      6.15574        -0.075885      0.020545     -0.000766
Li	      8.32687      4.07318      4.21897        -0.081515     -0.061816      0.074423
Li	      6.40080      2.16870      4.17422         0.053371      0.013462      0.025527
Li	      6.28453      2.15273      8.16819        -0.081812      0.003341     -0.121839
Li	      6.32876      6.16186      4.21714         0.030854     -0.017101      0.000955
Li	      6.27379      4.19924      6.17970        -0.006447     -0.034601      0.005314
Li	      6.38552      8.24978      6.20703        -0.003791      0.028608      0.006265
Li	      4.26818      4.15116      8.24884         0.067967      0.000695      0.012681
Li	      6.36033      6.20066      8.18938         0.037927     -0.046055      0.015096
Ti	      4.32214      8.22879      8.40174         0.204270     -0.058077      0.156211
Mn	      2.13537      0.04010      2.08945        -0.027101     -0.008447     -0.020481
Cr	      6.28897      0.04898      6.19608         0.092005     -0.004434     -0.074750
Cr	      4.18499      2.14795      6.20036        -0.279233     -0.126315     -0.009593
Cr	      8.43940      6.28276     10.33868        -0.121789      0.048778     -0.037406
Fe	      8.32264      4.13501      8.26053         0.042791     -0.016082     -0.141320
Fe	     10.49153      8.32943     10.30946         0.075643      0.132587      0.017586
Co	      4.33490      6.22477      6.21535         0.198848     -0.217531      0.080889
Ni	      4.25712      4.18473      4.14813        -0.061010     -0.036858     -0.004309
O	      2.22935      2.04575      2.05336         0.078511     -0.032205      0.015816
O	      4.10676      4.05164      2.01773         0.066950      0.022416     -0.018182
O	      4.19876      2.09531      4.10268         0.030894     -0.103109     -0.241319
O	      6.28594      4.18243      3.97361         0.108011      0.026807      0.007434
O	      6.17244      2.00149      6.19553         0.149280      0.108080     -0.013474
O	      8.49678      4.27038      6.23539        -0.068009     -0.100328      0.004224
O	      2.10305      4.23971      4.06207        -0.038268     -0.023899      0.116680
O	      4.15977      6.26198      4.30093         0.000890      0.054058     -0.029065
O	      4.21308      4.22279      6.17443        -0.014615     -0.239945      0.137919
O	      6.29950      6.22477      6.19034         0.544326      0.146269      0.008541
O	      6.40121      4.09049      8.35387        -0.137918      0.019475     -0.048519
O	      8.41539      6.17824      8.26684         0.028812      0.062581      0.066581
O	      2.10342      6.25485      6.22510        -0.422139     -0.012168      0.026866
O	      4.25605      8.25235      6.24350        -0.091082      0.360573      0.051277
O	      4.31938      6.32677      8.15562        -0.057919      0.118176     -0.010734
O	      6.20050      8.46323      8.28492        -0.172945     -0.039300     -0.009422
O	      6.43309      6.17156     10.43028         0.011846      0.040283     -0.054933
O	      8.53447      8.26959     10.32432        -0.081719     -0.028463      0.005827
