# total energy = -227.58882432 eV
 
CRYSTAL
PRIMVEC
0.029389 6.222146 6.141387 
6.417340 0.010525 6.160573 
4.283872 4.166590 0.001265 
PRIMCOORD
36 1
Li	      0.07582      0.10126      0.04217         0.014379     -0.037827      0.010949
Li	      2.00283      1.96550      0.04958        -0.050589     -0.091740      0.039047
Li	      2.15643      6.25815      8.09000         0.007569     -0.003747     -0.007177
Li	      6.43742      2.06378      8.16347        -0.007568      0.014243      0.041300
Li	      8.56203      4.15944      8.17060        -0.005163     -0.039686     -0.013203
Li	      4.26598      4.20203      4.05848        -0.017762      0.038600     -0.025055
Li	      6.43901      4.12575      6.23500         0.025175      0.026274      0.064000
Li	      4.19670      6.17417      6.19203        -0.024060     -0.020023      0.005956
Li	      4.37758      4.17504      8.17979         0.058747      0.025444      0.002466
Ti	      4.21842      2.20611      1.90672        -0.192478      0.510892     -0.234659
Mn	     10.70879      8.32059     10.24247         0.018157     -0.020793      0.030587
Cr	      6.41390      2.12588      4.13607         0.071826      0.008313     -0.035282
Cr	      8.61783      6.25709      6.29120         0.102895     -0.031739      0.202356
Cr	      2.22974      4.19086      6.16682        -0.091026      0.093602     -0.048851
Fe	      8.52032      4.14438      4.09996         0.098394     -0.090513      0.012860
Fe	      6.32920      6.19330      4.08103        -0.039451      0.045729     -0.001067
Ni	      2.22212      6.21528      4.08912         0.042835     -0.008445     -0.085266
Ni	      6.41758      6.18871      8.17506         0.010932     -0.040475     -0.048322
O	      2.30353      2.07339      2.11715         0.199506      0.008230     -0.108286
O	      4.29704      4.02809      2.05258         0.010577     -0.453871     -0.043509
O	      4.33767      2.05076      4.10923        -0.003256      0.053785      0.025224
O	      6.50078      4.17411      4.10785        -0.054421     -0.089388     -0.017886
O	      6.30498      2.12386      6.11564        -0.126189     -0.005537     -0.028576
O	      8.55681      4.36988      6.06596        -0.008194      0.131705      0.096772
O	      2.16280      4.10014      4.17031         0.093558     -0.058245      0.042469
O	      4.37188      6.30645      4.08159        -0.044874     -0.011093      0.035453
O	      4.20107      3.99410      6.14142         0.053818     -0.135210      0.019763
O	      6.56361      6.28984      6.10627         0.118896      0.040408     -0.058408
O	      6.42169      4.17389      8.37738        -0.010282     -0.124332     -0.072482
O	      8.54887      6.22304      8.14951         0.056886      0.048297     -0.311646
O	      2.21844      6.14690      6.08691        -0.074892     -0.016706      0.136821
O	      4.39811      8.31809      6.12303         0.061630     -0.018383      0.223736
O	      4.35802      6.33534      8.25765        -0.097750      0.042762      0.000841
O	      6.31516      8.28210      8.21379        -0.012735      0.108719      0.028378
O	      6.42701      6.24781     10.23792        -0.100344      0.083764      0.131434
O	      8.47094      8.35399     10.29089        -0.084742      0.016987     -0.010737
