# total energy = -233.89038235 eV
 
CRYSTAL
PRIMVEC
0.010263 6.200506 6.518273 
6.159238 0.017901 6.510338 
4.115432 4.137656 0.003011 
PRIMCOORD
36 1
Li	      8.15997      2.18779      6.52766        -0.061439      0.014155      0.063727
Li	      6.17749      4.10323      2.33758        -0.053883      0.080617      0.070596
Li	      8.13500      4.13402      4.46370         0.001320      0.006663      0.102723
Li	      6.12786      2.24603      4.33318        -0.009777     -0.000272      0.002106
Li	      8.21786      4.13683      8.60553        -0.009836     -0.057898     -0.017826
Li	      4.19940      4.07253      4.34783         0.006378      0.040090     -0.020461
Li	      6.21635      4.09536      6.42172         0.019414     -0.035429      0.006098
Li	      6.19018      8.24621      6.60168        -0.001788      0.028049      0.012417
Li	      6.13357      6.23697      8.60429         0.024837     -0.031060     -0.071030
Ti	      8.15145      6.16571     10.83241         0.023087     -0.171049     -0.001353
Mn	      4.18332      8.28424      8.73250        -0.219096      0.030142      0.072230
Cr	      4.11680      4.14210      0.02141         0.058473     -0.009970      0.220469
Cr	      4.13108      6.19393      6.52614        -0.016873     -0.035432     -0.010947
Cr	      8.16130      8.32527      8.69913         0.107570     -0.091122     -0.047645
Fe	      6.22968      6.04950      4.34310        -0.060254      0.223230     -0.141965
Fe	      4.10157      2.07242      6.47325         0.024577      0.110532      0.138019
Fe	      6.14528      4.15999     10.81766        -0.012414     -0.054770     -0.068662
Co	      0.09883      2.03694      2.14993        -0.344604      0.040663     -0.059817
O	      2.16284      2.08762      2.29941         0.198956     -0.012173      0.080912
O	      4.17279      4.08299      2.01375         0.042296      0.306576     -0.159070
O	      4.06756      2.11830      4.46474         0.100620     -0.007180     -0.125062
O	      6.16561      4.19597      4.35779        -0.001665     -0.197733      0.027096
O	      6.11050      2.01382      6.56014         0.109397      0.050520      0.149602
O	      8.30021      4.24485      6.54821        -0.016344     -0.108655     -0.039220
O	      2.01752      4.24032      4.25160        -0.027724      0.147392      0.052484
O	      4.09907      6.21914      4.43370        -0.011139     -0.010191      0.013678
O	      4.10485      4.16115      6.68338        -0.038396      0.039793      0.046258
O	      6.16012      6.22504      6.41496        -0.040261      0.029252      0.024427
O	      6.07002      4.10615      8.83507         0.045574     -0.370874     -0.126196
O	      8.22463      6.29544      8.76169         0.090554      0.048409      0.109527
O	      2.08626      6.22488      6.26898         0.009962     -0.015699     -0.165102
O	      4.10121      8.25870      6.39111         0.001487     -0.005647      0.025616
O	      4.11372      6.23900      8.50977         0.017720      0.005903     -0.069994
O	      6.11831      8.25868      8.71405        -0.034287     -0.006358     -0.028163
O	      6.23875      6.16929     10.96428         0.120531      0.073846     -0.020527
O	      8.24968      8.20211     10.73617        -0.042974     -0.054319     -0.044944
