# total energy = -231.85654776 eV
 
CRYSTAL
PRIMVEC
0.004502 6.165666 6.163046 
6.572610 -0.010619 6.178761 
4.362717 4.101319 0.012592 
PRIMCOORD
36 1
Li	      6.48301      0.06460      6.10368        -0.076844     -0.009376     -0.068969
Li	      8.61828      2.06266      6.08483        -0.102124     -0.046246      0.022229
Li	      6.54810      4.08698      2.17216        -0.000206     -0.024434      0.009912
Li	      6.65119      2.07031      4.24312         0.017419     -0.034841     -0.014466
Li	      4.46171      4.05976      4.13324         0.049896     -0.045107      0.043560
Li	      4.56547      2.06087      6.09491         0.116951      0.056924     -0.042019
Li	      6.62738      3.98394      6.12381         0.100153      0.014983      0.030068
Li	     10.84153      8.24745     10.31155        -0.048845      0.011201      0.022476
Li	      8.72810      8.17993      8.31679        -0.061545     -0.028111     -0.060438
Ti	      4.28288      6.09489      6.12014        -0.207046     -0.281913     -0.083484
Mn	      6.56584      6.10979      8.26845        -0.023187      0.028246      0.132822
Cr	      8.69365      4.01820      4.16553         0.023794      0.081434      0.032123
Cr	      6.59500      6.12181      4.16179         0.059851     -0.094025     -0.018451
Cr	      2.17982      4.12679      6.15491         0.076799      0.101255      0.042134
Fe	      4.40672      2.11376      2.07569        -0.089592     -0.017531      0.080408
Fe	      6.58800      2.06253      8.12799         0.036270     -0.010660      0.184087
Fe	      8.78785      4.12053      8.11291        -0.007468     -0.014539      0.080459
Cu	      8.70537      6.21766     10.28446         0.016051      0.031287      0.076262
O	      2.17352      2.11186      2.13881         0.073062     -0.040795      0.019262
O	      4.29568      4.09642      2.07999        -0.012724      0.072875      0.013468
O	      4.24809      1.97808      4.06446        -0.046459     -0.010385      0.020986
O	      6.67473      4.15657      4.15109         0.003463      0.026474      0.023823
O	      6.56266      2.04006      6.28412         0.058336     -0.003846     -0.161766
O	      8.78116      4.09540      6.18422        -0.007646      0.002453     -0.122753
O	      2.21050      4.12009      4.14511         0.006546     -0.072750     -0.018473
O	      4.58456      6.14752      4.20364         0.085004     -0.013693      0.052572
O	      4.22715      4.20100      6.22003        -0.039448      0.266759     -0.026739
O	      6.42721      6.20529      6.22846        -0.054294      0.004102     -0.052212
O	      6.72928      4.13389      8.22558         0.001717      0.040403      0.036212
O	      8.88159      6.12268      8.33015        -0.028002      0.060736     -0.125207
O	      2.34070      6.14208      6.08779         0.141033     -0.022440      0.114221
O	      4.50647      8.13007      6.23934        -0.029622     -0.033192     -0.084467
O	      4.30908      6.20480      8.17430         0.008467     -0.000506     -0.054611
O	      6.42964      8.11291      8.18238         0.055365     -0.004326     -0.091105
O	      6.36066      6.14501     10.15471        -0.098038     -0.002102     -0.000124
O	      8.73002      8.19020     10.28246         0.002912      0.011687     -0.011801
