# total energy = -185.52283585 eV
 
CRYSTAL
PRIMVEC
4.114855 -0.007700 4.241393 
-0.026113 8.223928 0.010845 
-4.102666 0.018321 4.229622 
PRIMCOORD
32 1
Li	     -3.01609      0.94909      5.19329        -0.005054      0.024561      0.008756
Li	      0.95830      5.23354      5.40322         0.005629     -0.025660     -0.009519
Li	     -1.01627      0.95053      3.20406         0.007584      0.018804     -0.024781
Li	     -1.04074      5.23370      7.39220        -0.007659     -0.019640      0.021984
Li	     -3.08476      3.09568      3.17630         0.000042     -0.000211      0.000069
Li	      1.00951      7.19478      3.18724         0.000465      0.000207      0.001463
Li	     -1.02845      3.09133      5.29818         0.001280      0.003292      0.000261
Li	     -1.04745      7.19807      1.06802         0.000999      0.000827     -0.001660
Mn	      1.02198      1.00296      5.34276         0.000440      0.031653     -0.039780
Mn	     -3.07812      5.18048      5.25129         0.003532     -0.029975      0.038511
Mn	      1.02283      3.08251      3.18209         0.002314      0.001243      0.001412
Mn	     -1.03429      3.08659      1.06123        -0.001908     -0.002221     -0.000905
Ni	     -1.01089      1.00660      7.41912        -0.032759      0.029480     -0.000494
Ni	     -1.04512      5.17687      3.17507         0.030153     -0.031603      0.001556
Ni	     -3.09832      7.20791      3.18202        -0.002486     -0.003192     -0.000001
Ni	     -1.04089      7.20369      5.30276        -0.002395     -0.000770     -0.000686
O	     -0.92370      3.09418      3.00425        -0.008034     -0.101760     -0.055467
O	     -0.88157      7.22571      7.37310        -0.117531     -0.119162      0.081941
O	      0.90775      3.16337      0.96946        -0.030519      0.011399     -0.025200
O	      1.02399      7.32862      5.28767         0.108120      0.026683     -0.061140
O	     -0.89391      1.07725      5.35190         0.039345      0.091629     -0.113949
O	     -0.96001      5.02384      1.07541         0.017273     -0.035490     -0.086407
O	      1.04587      0.93932      7.28203         0.104016      0.108101     -0.046117
O	      1.01277      5.04386      2.98847         0.107013     -0.005091     -0.032465
O	      2.96952      3.07116      3.35950         0.008739      0.102291      0.056989
O	     -1.20014      7.18181      3.23227         0.117492      0.119316     -0.081695
O	      1.13841      3.00212      5.39453         0.031156     -0.012602      0.025996
O	      0.99670      7.06050      1.08805        -0.108349     -0.024425      0.060690
O	      3.00647      1.14157      5.28875        -0.017076      0.037232      0.087274
O	     -1.16216      5.10602      5.24233        -0.042593     -0.089086      0.114596
O	      1.03340      1.12120      3.37566        -0.106034      0.001659      0.032800
O	     -3.10186      5.24462      3.31201        -0.103194     -0.107488      0.045967
