# total energy = -231.78433850 eV
 
CRYSTAL
PRIMVEC
0.021533 6.245171 6.310751 
6.275396 0.022590 6.309718 
4.176436 4.155558 0.022369 
PRIMCOORD
36 1
Li	      8.32102      2.14564      6.31386        -0.036180      0.052952      0.009548
Li	      6.21701      4.17522      2.22827         0.022484      0.017969      0.093401
Li	      8.40939     10.34279     10.55829         0.029037     -0.062778      0.060094
Li	      6.35136      8.34156     10.50501         0.022743      0.021814      0.036872
Li	      0.05539      2.05559      2.07755         0.051605     -0.027069     -0.055684
Li	      2.10263      4.11622      2.14391         0.000041     -0.026268     -0.045540
Li	      4.19578      4.17765      4.12286         0.019174      0.012940     -0.018388
Li	      6.26101      4.24224     10.40576        -0.018774     -0.027324     -0.101286
Li	      6.27407      6.24203      8.51801        -0.009908     -0.017364      0.013886
Ti	      4.08550      6.35077      6.31867        -0.158865      0.124613     -0.022512
Mn	      6.33413      4.12432      6.32707         0.064411     -0.066814     -0.024679
Cr	     10.44072      4.18891      6.33659         0.012704      0.004633      0.002909
Cr	      8.36417      6.25055      6.32950         0.052497     -0.048329     -0.012609
Cr	      8.36420      8.35176      8.46782        -0.028156      0.002086      0.098828
Fe	      4.25284      2.15190      2.25608        -0.041247     -0.089964     -0.019480
Fe	      2.08463      2.09533      4.10943        -0.021740      0.035925      0.081040
Fe	      8.29392      6.22858     10.39702         0.103376     -0.039794      0.006593
Ni	      6.27835      8.31664      6.32770        -0.048264      0.046528      0.013361
O	      2.20888      2.05366      2.20566        -0.044772     -0.000482     -0.156126
O	      4.22521      4.08416      2.02394        -0.027359      0.152739      0.003234
O	      4.12868      2.11820      4.25047         0.069664     -0.008597      0.131288
O	      6.28920      4.24329      4.40719        -0.003673     -0.049883     -0.012722
O	      6.17654      2.05549      6.30982         0.021328     -0.045588      0.010861
O	      8.43210      4.26971      6.34166         0.055607     -0.019784     -0.003225
O	      2.09675      4.17821      4.25107         0.011589     -0.032999     -0.086664
O	      4.20300      6.23289      4.40053        -0.048461      0.029225      0.082297
O	      4.16459      4.20133      6.39695         0.091485      0.021198     -0.038069
O	      6.26172      6.24620      6.26173        -0.008928     -0.083757      0.043264
O	      6.20030      4.16628      8.24339        -0.059296      0.000897      0.021509
O	      8.34688      6.33472      8.39153         0.011938     -0.002793     -0.112176
O	      2.15467      6.24756      6.23558         0.107016      0.160288      0.062356
O	      4.20110      8.27923      6.41970        -0.150995     -0.123810     -0.048420
O	      4.21111      6.24635      8.26513        -0.006880     -0.029279     -0.082488
O	      6.27816      8.33597      8.39882         0.108900     -0.019502      0.066449
O	      6.36439      6.22028     10.62957        -0.143024      0.042753     -0.010391
O	      8.40969      8.21928     10.42745         0.000921      0.095621      0.012668
