# total energy = -235.31487979 eV
 
CRYSTAL
PRIMVEC
-0.000105 6.258251 6.408038 
6.252493 -0.007979 6.416463 
4.156497 4.165615 0.006403 
PRIMCOORD
36 1
Li	      4.16478      4.17502      0.06294        -0.024828     -0.013910      0.046941
Li	      2.09910      4.23066      2.19606         0.015308     -0.036966      0.023543
Li	      6.15261      6.29615      4.34067        -0.009782      0.040477      0.023281
Li	      4.10699      4.26925      4.33446        -0.019027      0.015682     -0.001104
Li	      8.28070      6.33750      6.50572        -0.010789     -0.009415     -0.049811
Li	      6.09970      4.23349      6.44395        -0.011640      0.027942     -0.022884
Li	      2.14809      6.17643      4.17398         0.000585     -0.036518     -0.073954
Li	      4.22518      6.14888      6.35664        -0.000645      0.023347     -0.001559
Li	      4.21511      4.11286      8.44060         0.020926      0.005060     -0.032447
Ti	      8.28876      4.20798      4.36488        -0.136733      0.219067      0.293733
Mn	      2.08764      8.30253      6.40632        -0.000787     -0.001552      0.071363
Cr	      6.28191      8.30480     10.71894        -0.064535      0.073556      0.035500
Cr	     10.33000      6.25041      8.55191         0.024417     -0.010010      0.001579
Cr	      6.29000      6.21049      8.50547         0.071405     -0.056573     -0.157420
Fe	      2.06305      0.00947      2.11605         0.009316      0.007691      0.103913
Fe	      4.10058      2.14892      2.11343        -0.035641      0.043167      0.029058
Fe	      4.21316      8.25110      4.26825         0.003351      0.010538      0.035937
Fe	      2.25812      4.14233      6.33283        -0.124730      0.053331     -0.010233
O	      1.98899      2.02004      2.17343        -0.087185      0.006773     -0.055992
O	      4.21095      4.24628      2.17532         0.018994      0.096494     -0.025357
O	      4.26289      1.96434      4.26502         0.049420     -0.235631      0.052654
O	      6.34651      4.06616      4.19340         0.184405     -0.044542      0.034425
O	      6.38338      2.05452      6.36847         0.055551     -0.035598     -0.025499
O	      8.34576      4.03650      6.23928        -0.006972      0.033317     -0.289684
O	      1.99522      4.17797      4.40217         0.026817      0.038524     -0.097641
O	      4.12010      6.33345      4.12930        -0.002521     -0.076058     -0.000565
O	      4.11448      4.19014      6.36778         0.167796     -0.014538      0.043698
O	      6.22570      6.34114      6.53988        -0.021017     -0.064985      0.051111
O	      6.26152      4.17453      8.65466        -0.009328      0.021721     -0.087397
O	      8.32136      6.21734      8.51634        -0.063583      0.031813      0.024058
O	      2.10473      6.26302      6.54836        -0.038709     -0.010843     -0.046660
O	      4.07426      8.35443      6.37454        -0.048151     -0.015660     -0.042327
O	      4.19068      6.25845      8.68305         0.004013     -0.112753      0.088490
O	      6.24508      8.31106      8.62165         0.104094     -0.018339      0.049246
O	      6.18065      6.26533     10.58112        -0.034728      0.005990     -0.012158
O	      8.31202      8.40913     10.65805        -0.005067      0.039400      0.024161
