# total energy = -219.55685244 eV
 
CRYSTAL
PRIMVEC
0.047548 6.209663 6.271525 
6.226981 0.036270 6.282937 
4.158099 4.154413 0.017150 
PRIMCOORD
36 1
Li	      6.26320      0.14439      6.29979         0.011810     -0.037437      0.027513
Li	      8.18548      2.10079      6.30665        -0.021252      0.016550      0.009297
Li	      6.23747      2.10879      4.36744         0.025144      0.006352      0.058884
Li	      8.33531      4.20131      8.28630         0.008056     -0.012252     -0.091914
Li	      4.17625      4.20886      4.23859        -0.005862      0.024792      0.002109
Li	      6.20752      4.04521      6.29861        -0.023570      0.031465     -0.036699
Li	      4.18179      8.24114      4.20290        -0.019730     -0.010900     -0.006839
Li	      4.14951      6.16676      6.21430         0.006820     -0.021366     -0.039470
Li	      4.19001      4.14326      8.32637        -0.035414      0.019400     -0.008048
Ti	      8.37963     10.23620     10.60781        -0.001388     -0.384586      0.260951
Mn	      2.14473      4.17091      6.25574        -0.024398      0.065693     -0.016360
Cr	      4.15758      2.19044      2.05056         0.002946      0.069455     -0.064314
Cr	      6.20491      6.24147      4.19630        -0.073987      0.067350      0.052827
Cr	      6.30428      6.11666      8.37570         0.003342     -0.087121     -0.022192
Ni	      2.13805      6.26107      4.22794        -0.031366      0.017285      0.005483
Ni	      2.15488      6.22297      8.33973         0.048228     -0.025564     -0.039931
Ni	      6.23256      2.13423      8.34202        -0.021780      0.024055      0.042896
Ni	      4.24168      2.12726      6.25699        -0.045949      0.005245     -0.022557
O	      2.14772      2.08834      2.15928         0.132531      0.133443      0.004360
O	      4.19961      4.04088      2.14662        -0.124637     -0.115633      0.006309
O	      4.08894      2.02214      4.07036         0.037301     -0.002719     -0.073311
O	      6.35663      4.23019      4.12523         0.117192     -0.003053      0.196884
O	      6.20782      2.10638      6.38810         0.143330      0.002260     -0.165956
O	      8.35693      4.22530      6.15956        -0.026091     -0.146190     -0.208526
O	      2.06412      4.11725      4.36286         0.003928     -0.075498      0.023729
O	      4.20914      6.24340      4.08165         0.124622     -0.026522      0.161760
O	      4.02546      4.14072      6.28453        -0.080142      0.109539     -0.018243
O	      6.29003      6.34399      6.28032        -0.098179      0.007504      0.065170
O	      6.21366      4.32218      8.31422         0.046003      0.143855      0.003816
O	      8.19084      6.27015      8.43328        -0.118376     -0.033538     -0.101931
O	      2.12906      6.07244      6.28516        -0.024460     -0.074211     -0.032243
O	      4.30076      8.26847      6.47377         0.050643      0.015614      0.089990
O	      4.31062      6.36763      8.43594         0.117623      0.019922      0.038039
O	      6.20549      8.25718      8.25684        -0.002361     -0.117293     -0.047819
O	      6.21470      6.24068     10.32849        -0.106408     -0.033524     -0.052056
O	      8.33324      8.38219     10.49477         0.005829      0.427630     -0.001610
