# total energy = -226.68600059 eV
 
CRYSTAL
PRIMVEC
0.008821 6.129600 6.468050 
6.244164 0.000484 6.477466 
4.141199 4.069918 0.023220 
PRIMCOORD
36 1
Li	     10.30182      4.12742      6.48500        -0.013383      0.032060     -0.014919
Li	      8.33805      8.21922     12.74200        -0.028972      0.056867      0.009798
Li	      6.18404      4.09413      2.39238        -0.000310      0.048054      0.043932
Li	      4.17722      6.11187     10.73625         0.013421      0.028772      0.050292
Li	      6.27005      8.07637     10.77639         0.003550     -0.020931      0.050943
Li	      8.33516      4.07451      8.61210         0.019500     -0.040010     -0.006912
Li	      4.19661      4.08911      4.14288         0.000435      0.075042      0.037190
Li	      6.21637      4.12509     10.64197         0.071908     -0.105635      0.045116
Li	      6.22366      6.03385      8.85229        -0.010535      0.085165      0.007560
Ti	      6.14127      8.25010      6.54675        -0.169147      0.011970     -0.316363
Mn	      4.20942      2.01071      6.37283        -0.144465     -0.246758     -0.094489
Mn	      8.29081      6.15044     10.75376        -0.000268     -0.076819      0.028979
Cr	      4.11935      2.08471      2.24710         0.361849     -0.152606      0.191714
Cr	      6.26906      4.02965      6.46864         0.133907      0.148280     -0.388870
Cr	      4.14027      6.12577      6.51953         0.116460     -0.026423     -0.218309
Co	      6.23711      6.08941      4.32984        -0.115111      0.394906     -0.353594
Cu	      0.06703      1.96466      2.13364         0.097905     -0.002197     -0.041567
Ni	      8.33753      8.17481      8.74161        -0.170558      0.073912      0.112209
O	      2.11481      2.03945      2.39700        -0.392686      0.138252      0.288147
O	      4.15938      4.07846      2.14626        -0.017289     -0.033967     -0.117578
O	      4.15462      2.07352      4.25280        -0.161028     -0.128919     -0.307567
O	      6.20779      4.22763      4.44450         0.083695     -0.028044      0.332001
O	      6.11143      2.08448      6.37700         0.022835      0.081911     -0.134779
O	      8.23072      4.18053      6.44702         0.053983     -0.019679      0.095336
O	      2.07843      4.07744      4.53252         0.048669     -0.047221      0.344052
O	      4.06799      6.14303      4.52657         0.110553     -0.083712      0.181348
O	      4.13041      4.04356      6.58228        -0.054644      0.112143     -0.007549
O	      6.24400      6.13236      6.37215        -0.059930      0.116534      0.248643
O	      6.23473      3.95910      8.46884         0.115459     -0.054243      0.020986
O	      8.36545      6.10909      8.82301         0.214796     -0.142773      0.161994
O	      2.14705      6.08759      6.35182        -0.007138     -0.283086     -0.047987
O	      4.22561      8.11638      6.63269         0.087845      0.027719      0.064278
O	      4.16469      6.15554      8.53010         0.034844      0.176410     -0.106622
O	      6.19826      8.16371      8.45975        -0.071540      0.020304     -0.070685
O	      6.44171      6.08582     10.78851        -0.172633     -0.034554     -0.036317
O	      8.32233      8.04644     10.77597        -0.001976     -0.100723     -0.050410
