# total energy = -227.91813573 eV
 
CRYSTAL
PRIMVEC
0.016411 6.160287 6.364453 
6.295096 0.015682 6.365171 
4.192510 4.103046 0.014377 
PRIMCOORD
36 1
Li	     10.47334      4.12110      6.39555        -0.140991     -0.007833      0.052149
Li	      8.38920      4.11566      4.28194         0.012426      0.040727      0.071693
Li	      8.29715      4.15285      8.39278         0.073173     -0.059270     -0.154737
Li	      6.24257      6.10447      4.28724         0.026871      0.040248     -0.020937
Li	      8.39104      6.07011      6.39875         0.001169      0.054087     -0.095031
Li	      6.29217      4.16531      6.39692         0.060681      0.000946      0.011136
Li	     10.41916      8.20158     10.54656         0.028388      0.039816      0.011089
Li	      4.22578      6.19928      6.43606         0.046365      0.004905      0.080869
Li	      4.29872      4.10279      8.45566         0.021083      0.088302     -0.069089
Ti	      2.19862      4.14445      6.32646         0.032860     -0.328980     -0.239315
Mn	      4.13894      2.07001      2.12948        -0.130530      0.034962     -0.079140
Mn	      6.38075      6.10543      8.48172        -0.188488     -0.167837     -0.043809
Cr	      6.34952      8.20377     10.64459         0.007572     -0.113671      0.335463
Cr	      6.22457      2.08219      8.41553        -0.070207      0.198896     -0.248467
Cr	      4.18985      4.12556      4.24501        -0.062733     -0.071208     -0.056127
Co	      8.38389      2.26544      6.35871         0.274566     -1.211372      0.129290
Cu	      2.15804      0.01288      2.18410        -0.021800     -0.084695     -0.109474
Cu	      8.41811      6.18699     10.58470        -0.002543     -0.067130     -0.001934
O	      8.34275      8.14961     10.73781        -0.113521      0.369536      0.135505
O	      1.95619      2.02818      2.06195         0.044528      0.259238     -0.102787
O	      4.06904      4.10169      2.23753        -0.072699     -0.106107      0.078922
O	      4.27878      2.11071      4.10122         0.049277      0.041824      0.039310
O	      6.20828      4.05540      4.16643         0.013002      0.045550     -0.037088
O	      6.34658      2.04422      6.33251        -0.278776      0.068854     -0.137628
O	      8.41568      4.04093      6.29968        -0.047857      0.063940     -0.102679
O	      2.12792      4.10296      4.43647        -0.003006      0.032959      0.273689
O	      4.11165      6.11413      4.08513         0.010839      0.028494      0.037076
O	      4.10181      4.14081      6.25477        -0.271919      0.043080     -0.006483
O	      6.29325      6.27524      6.54208         0.047876      0.241674     -0.104594
O	      6.27458      4.17402      8.47026        -0.009244     -0.386455      0.052908
O	      8.35735      6.13823      8.36513         0.223472      0.043098      0.169153
O	      2.14167      6.07771      6.61590         0.020031      0.371465      0.011077
O	      4.25786      8.23473      6.55513         0.259215      0.057499      0.071638
O	      4.42648      6.28167      8.55133         0.012944     -0.080323     -0.004127
O	      6.41567      8.10782      8.54300         0.116804      0.453960     -0.016726
O	      6.42403      6.19233     10.44769         0.031176      0.060818      0.069205
