# total energy = -228.79333090 eV
 
CRYSTAL
PRIMVEC
0.040540 6.166768 6.356465 
6.261118 0.015127 6.382354 
4.155213 4.109516 0.029209 
PRIMCOORD
36 1
Li	      6.27780      6.17756     12.69477         0.024796     -0.022916     -0.054319
Li	      4.25872      8.09813      8.58104        -0.023642      0.002529      0.044419
Li	      4.21013      6.23059     10.52667         0.015911     -0.024585     -0.021596
Li	      6.28343      6.11749      4.46014        -0.041330     -0.004716     -0.021252
Li	      6.27159      4.23208      6.37217         0.000064     -0.022815     -0.019646
Li	      8.39688      6.21336     10.59255        -0.040013      0.002886     -0.029732
Li	      4.27772      6.14120      6.53946        -0.019279     -0.000917      0.061165
Li	      4.17132      4.18473      8.45270        -0.022674     -0.019967     -0.007736
Li	      6.15078      6.21254      8.41746        -0.054499      0.009245      0.046658
Ti	      6.28171      4.27467     10.57571        -0.125616      0.486076      0.087223
Mn	      8.38334      8.22870     12.74052         0.164174      0.001168      0.057645
Mn	      4.19021      4.12210      4.27125         0.086856      0.032228      0.190414
Cr	      2.19612      6.15737      8.49357         0.102267     -0.046147      0.037492
Cr	     10.38989      6.17428      8.51092         0.207300      0.141663     -0.033807
Cr	      6.26210      8.19344      6.43745        -0.096000      0.227805     -0.016331
Co	      8.34398      4.15818      8.49970        -0.150896     -0.229291     -0.043116
Ni	      6.30567      8.17246     10.57882         0.115778     -0.058776     -0.026076
Ni	      8.29842      6.15252      6.39616         0.205646     -0.156240      0.000271
O	      2.03448      2.04000      1.95147        -0.062908     -0.043261      0.089379
O	      4.21071      4.14622      2.31442        -0.109977     -0.045550     -0.075591
O	      4.22369      2.19245      4.31350        -0.133336      0.047424     -0.041941
O	      6.10385      4.08113      4.20470        -0.114420      0.141604      0.050963
O	      6.40474      2.05364      6.40389        -0.278881     -0.000829      0.091639
O	      8.35590      3.97336      6.44506         0.028391      0.319350     -0.104261
O	      2.10241      4.11384      4.31448         0.007333      0.018289      0.062730
O	      4.18716      6.10529      4.12409        -0.019769      0.003798      0.004619
O	      4.10339      4.12730      6.19573         0.007173      0.071018     -0.079002
O	      6.29715      6.25808      6.42006        -0.198426     -0.169685     -0.013303
O	      6.22673      4.05414      8.66371         0.181240     -0.041051      0.033553
O	      8.44164      6.14178      8.42720         0.053202      0.138944      0.056801
O	      2.10195      6.22831      6.49020        -0.004875     -0.194550     -0.081438
O	      4.14868      8.20056      6.22026         0.120628     -0.010266     -0.074982
O	      4.10770      6.16787      8.55259         0.017178      0.012945     -0.011332
O	      6.28523      8.28329      8.44613        -0.034173      0.042065     -0.060065
O	      6.32144      6.10984     10.58291        -0.005956     -0.603449      0.011753
O	      8.44436      8.21778     10.81486         0.198736     -0.004025     -0.111204
