# total energy = -231.41342609 eV
 
CRYSTAL
PRIMVEC
0.060476 6.369909 6.182589 
6.243489 0.055061 6.188114 
4.187048 4.275313 0.011758 
PRIMCOORD
36 1
Li	      6.22365      4.33219      2.16468         0.049560     -0.003260     -0.054070
Li	      4.13613      2.19411      2.12498         0.016190     -0.018382     -0.034610
Li	      4.09068      0.13838      4.13027         0.027075     -0.039956     -0.022068
Li	      2.11853      4.22412      2.04108        -0.007236     -0.037786      0.009585
Li	      2.21032      2.08045      4.04302         0.005624     -0.030793      0.088930
Li	      8.27774      6.33287      6.18656        -0.059280     -0.078466      0.042818
Li	      6.36777      4.31105      6.17451         0.016299      0.017707      0.022821
Li	      6.29019      8.53400      6.18185        -0.038275     -0.031092      0.015788
Li	      6.35838      6.39538      8.25320        -0.026102      0.005529     -0.050804
Ti	      4.39388      6.39123      6.29045         0.375272      0.015545      0.089222
Mn	      2.12163      2.18474      0.06779         0.049076     -0.139166     -0.015377
Mn	      6.20963      2.19087      4.12286        -0.005503      0.078687     -0.044571
Cr	      6.26636      2.16943      8.23421        -0.009963      0.132285      0.026010
Cr	      4.16036      4.23563      4.12359        -0.067206      0.126838      0.018037
Cr	      8.34519      8.53508      8.21431         0.045212     -0.030121      0.011720
Co	      0.15422      4.28317      4.07254         0.046952      0.239184      0.018074
Co	      8.36096      6.47306     10.29996         0.071618     -0.066496     -0.075764
Cu	      4.19596      4.24546      0.07168         0.019457      0.036981      0.075147
O	      1.99705      2.12742      2.12054         0.075893     -0.002059     -0.007018
O	      4.18140      4.37786      2.11948        -0.024905     -0.161111     -0.060501
O	      4.29962      2.22434      4.14873         0.004490     -0.023288      0.016191
O	      6.16994      4.09776      4.15298         0.065035      0.014785     -0.060875
O	      6.33944      2.27502      6.16903         0.115798      0.217247     -0.111366
O	      8.49296      4.13297      6.16608        -0.147077      0.250762      0.028940
O	      2.14112      4.49165      4.14677         0.008132      0.003632     -0.067892
O	      4.08250      6.31533      4.11897        -0.035860     -0.059216     -0.034608
O	      4.11432      4.43503      6.17077         0.038674      0.005633      0.060570
O	      6.21043      6.40152      6.11731        -0.384352     -0.019113      0.076474
O	      6.17044      4.20671      8.29543        -0.051493     -0.080619     -0.023241
O	      8.41612      6.52627      8.32125        -0.015294     -0.010902      0.066801
O	      2.11553      6.55797      6.06353         0.085591     -0.068281     -0.017576
O	      4.19152      8.33465      6.10618        -0.082186     -0.209174      0.048211
O	      4.21428      6.30376      8.14016         0.027476      0.015985     -0.075385
O	      6.35913      8.51845      8.40443        -0.093122     -0.012165      0.038441
O	      6.42708      6.54095     10.36403         0.003830      0.000800     -0.003354
O	      8.30235      8.45906     10.23104        -0.099399     -0.040153      0.005297
