# total energy = -230.99927171 eV
 
CRYSTAL
PRIMVEC
0.037737 6.168914 6.246527 
6.306604 0.039266 6.245109 
4.207677 4.114949 0.023114 
PRIMCOORD
36 1
Li	      4.23625      2.11051      2.15115         0.052597     -0.004396     -0.045862
Li	      8.45200      4.14250      4.23537        -0.014222     -0.003970     -0.007558
Li	      6.29410      2.06218      4.21618         0.029222      0.062658      0.020424
Li	      6.30461      6.16836      4.27668        -0.007054     -0.012763     -0.011590
Li	      6.23685      4.16271      6.22698        -0.033829     -0.055008      0.053170
Li	     10.42972      8.25892     10.42079         0.022815      0.042965      0.029482
Li	      8.49058      6.27912     10.40146        -0.031104     -0.031417      0.011100
Li	      4.28913      6.16308      6.10233         0.018017      0.044744     -0.008156
Li	      8.52966      8.20540      8.42910        -0.002393      0.003640      0.018621
Ti	      2.36904      6.13566      8.40517         0.185168     -0.043803      0.104980
Mn	      6.32025      6.21516     12.36793         0.033782     -0.005987     -0.054283
Mn	      8.45598      8.27045     12.39154         0.017870     -0.038322      0.015743
Cr	      2.09108      4.07905      2.12530        -0.005320      0.008142      0.033578
Cr	      2.16726      4.12998      6.18395        -0.068231      0.045892     -0.003310
Cr	      6.30412      6.19516      8.41758        -0.037064      0.072549      0.003370
Co	      4.22914      4.11481      4.17839        -0.013885      0.073203      0.074684
Co	      8.37597      6.20208      6.25794        -0.041962      0.039195      0.017120
Ni	     10.47681      6.23087      8.38739         0.020502      0.086042     -0.059394
O	      2.08317      2.01355      1.92148         0.115792     -0.014316      0.021630
O	      4.16069      4.11703      1.95253        -0.021997     -0.101573     -0.039827
O	      4.18173      2.22896      4.32693         0.124589      0.017326      0.027425
O	      6.21285      4.13829      4.00566         0.017656     -0.010035     -0.148582
O	      6.15200      2.00903      6.28747        -0.022028      0.005461     -0.101226
O	      8.31989      4.15893      6.34619        -0.047805      0.007831     -0.037072
O	      2.27481      4.11074      4.15760        -0.025302     -0.034167      0.013092
O	      4.24926      5.99778      4.12318        -0.015322     -0.134304      0.118525
O	      4.16321      4.00309      6.28470        -0.037934     -0.016081     -0.029962
O	      6.40810      6.26904      6.37739        -0.012357     -0.084007     -0.046944
O	      6.40640      4.19595      8.40338        -0.012272      0.069114     -0.018461
O	      8.33887      6.11722      8.25792        -0.062827      0.036709     -0.021714
O	      2.20359      6.19072      6.35290         0.035267     -0.031853      0.023213
O	      4.33801      8.35674      6.19014         0.034039     -0.066905      0.022099
O	      4.21750      6.20405      8.39024        -0.192962      0.020548      0.015617
O	      6.34715      8.30433      8.25024         0.004574      0.067631      0.047213
O	      6.32538      6.25801     10.40836        -0.018003     -0.033289      0.046886
O	      8.42590      8.26783     10.57889         0.011986      0.018547     -0.084033
