# total energy = -232.99273121 eV
 
CRYSTAL
PRIMVEC
0.030666 6.199203 6.423765 
6.228021 0.037690 6.416682 
4.159979 4.136039 0.017438 
PRIMCOORD
36 1
Li	      2.08838      2.05776      0.02848        -0.004412     -0.005954     -0.127935
Li	      2.13855      6.20692      8.58055         0.010415     -0.008799      0.072163
Li	      6.25513      2.17014      4.30117         0.142213     -0.003715      0.007525
Li	      8.24915      4.17978      8.55721        -0.002749      0.004526      0.046158
Li	      8.31732      6.29723      6.50510         0.022635     -0.040092     -0.032292
Li	      6.17613      4.14770      6.46046         0.018755      0.006791     -0.048176
Li	      6.26270      4.16354     10.59021        -0.146803     -0.018371     -0.055186
Li	      4.16397      6.13457      6.42673        -0.021793      0.052117     -0.080440
Li	      4.23313      4.13156      8.43731         0.003030      0.004205      0.136677
Ti	      6.17120      0.14473      6.44020        -0.180631      0.245515     -0.121002
Mn	      4.16127      8.25709      8.55557         0.015483      0.033789     -0.065163
Mn	      6.28768      6.14043      8.50187         0.101096     -0.016356      0.088353
Cr	      8.33165     10.29577     10.74111         0.119391     -0.486967     -0.081888
Cr	      6.23219      6.22376      4.30113        -0.037142     -0.040185      0.008706
Cr	      2.11519      4.13483      6.40945         0.044205      0.173599     -0.082639
Co	      4.22036      4.15496      4.37366        -0.232847      0.027844      0.063429
Co	      6.21536      2.20818      8.54685        -0.067674      0.112824     -0.004426
Co	      8.34195      6.39077     10.69624        -0.074433     -1.316011      0.014355
O	      2.18814      2.08077      2.24206         0.113851     -0.012462      0.067399
O	      4.18269      4.01820      2.07192         0.008142     -0.030107      0.168699
O	      4.11377      2.02008      4.11084        -0.097525     -0.155716      0.051755
O	      6.30697      4.20699      4.28636        -0.268368      0.172974      0.043918
O	      6.24720      2.00580      6.54992        -0.052701     -0.303028      0.097923
O	      8.43339      4.15686      6.30880         0.235021      0.081323      0.054741
O	      2.10340      4.17427      4.38756         0.454135      0.204025      0.014362
O	      4.19518      6.22841      4.17308        -0.474600      0.035256     -0.052909
O	      4.08359      4.14676      6.38659         0.016998     -0.032304     -0.463637
O	      6.23776      6.28547      6.31072         0.028782     -0.026337     -0.023368
O	      6.25224      4.25337      8.52853         0.053064     -0.036489     -0.054082
O	      8.26695      6.21113      8.69885        -0.050035      0.328664      0.702903
O	      2.00930      6.15554      6.33737         0.084673      0.187922     -0.543170
O	      4.21489      8.31720      6.63922         0.026238      0.052433      0.104952
O	      4.25777      6.28307      8.67628        -0.001707      0.109882     -0.019532
O	      6.14599      8.15170      8.47825        -0.067746      0.021091     -0.036324
O	      6.22993      6.21181     10.86631         0.437475      0.119630      0.117308
O	      8.32156      8.23693     10.74316        -0.154436      0.558483      0.030843
