# total energy = -224.62577601 eV
 
CRYSTAL
PRIMVEC
-0.033483 6.445280 6.177882 
6.263416 -0.021015 6.166069 
4.154801 4.267943 0.006657 
PRIMCOORD
36 1
Li	      6.28641      6.42231     12.20702         0.000554      0.043693      0.044927
Li	      4.32440      6.33425     10.26103        -0.011792      0.023922      0.011793
Li	      6.33228      8.32785     10.23426        -0.025036     -0.024945     -0.013357
Li	     10.28090      6.48462      8.22295        -0.049773      0.021794     -0.030225
Li	      8.30675      4.37758      8.21347         0.023078      0.047040     -0.044462
Li	      8.18861      6.51027     10.23686         0.077567      0.017136     -0.034142
Li	      2.04777      4.40627      6.22913         0.048514      0.069396      0.014528
Li	      8.29790      8.44263      8.35848        -0.033919     -0.091734     -0.068157
Li	      6.26913      6.44357      8.35736         0.035433      0.007035     -0.110469
Ti	      2.02169      2.20517      4.07510        -0.118835     -0.043199      0.098050
Mn	      4.19701      8.55820      8.22554         0.083244      0.080703      0.098074
Mn	      4.12515      4.27263      4.11990        -0.002469     -0.002082      0.130273
Cr	      8.30397      8.56567     12.30024        -0.185626      0.201597      0.373228
Cr	      8.38069      6.29740      6.22744        -0.006367     -0.037500      0.167904
Cr	      6.24086      4.22292      6.25158        -0.028700      0.057318     -0.160596
Cu	      4.11766      6.45776      6.20834         0.081134     -0.072208      0.007563
Ni	      6.22462     10.65117      8.23191        -0.026571     -0.025805      0.107573
Ni	      6.20197      4.40574     10.18148         0.067227      0.049813     -0.006779
O	      6.26948      6.35548     10.28782         0.001976     -0.164638     -0.005147
O	      2.17617      2.08871      2.10834        -0.001420      0.074392      0.116298
O	      4.18233      4.09599      2.19987        -0.106015     -0.061216     -0.013910
O	      4.04705      2.04981      4.06730        -0.118742      0.005842     -0.003588
O	      6.07799      4.39554      4.16691         0.010572      0.143952     -0.027054
O	      6.25669      2.21843      6.16385         0.120406     -0.140325     -0.045689
O	      8.20778      4.25273      6.18230         0.122476     -0.056881     -0.051800
O	      2.15489      4.12964      4.15511        -0.145067     -0.160140     -0.009491
O	      4.25252      6.49328      4.18263         0.189386      0.081217     -0.090165
O	      4.21635      4.07449      6.07364        -0.107703      0.000544     -0.044663
O	      6.30994      6.26077      6.07235        -0.031707      0.030049     -0.193795
O	      6.20113      4.24758      8.14335        -0.027502      0.008747      0.368575
O	      8.33454      6.39540      8.11129        -0.012163     -0.052122     -0.042629
O	      2.13137      6.60779      6.20487         0.010564     -0.015935     -0.155153
O	      4.04245      8.73043      6.33074         0.026150     -0.009360     -0.237938
O	      4.12108      6.63073      8.14304         0.100875      0.086528      0.041302
O	      6.05953      8.61089      8.22147        -0.073193     -0.084409      0.030995
O	      8.34853      8.57488     10.38250         0.113442     -0.008220     -0.221874
