# total energy = -185.80593376 eV
 
CRYSTAL
PRIMVEC
4.174643 -0.000001 4.174378 
-0.000798 8.284788 0.000802 
-4.130471 0.000837 4.130165 
PRIMCOORD
32 1
Li	     -3.11725      1.03848      5.13783        -0.002781     -0.000984     -0.000781
Li	      1.13214      5.17949      5.26249        -0.008611     -0.000454     -0.009266
Li	     -1.05618      1.03655      3.06921         0.005217     -0.000752      0.007921
Li	     -0.93355      5.17976      7.32726        -0.007801     -0.000540     -0.008811
Li	     -3.07092      3.24411      3.11932        -0.010409     -0.032548     -0.006017
Li	      1.01849      7.14439      3.07950         0.016839     -0.008217      0.020676
Li	     -1.05084      3.21485      5.14835         0.020439      0.008751      0.017082
Li	     -1.01011      7.11559      1.05832        -0.006635      0.033082     -0.008898
Mn	      1.05238      1.03735      5.18203        -0.015225      0.000159     -0.016004
Mn	     -1.01205      1.03776      7.24787        -0.019071     -0.000947     -0.019456
Mn	      1.02641      3.13277      3.09707         0.002720      0.002935     -0.008767
Mn	     -1.03325      7.22652      5.15670        -0.007093     -0.002297      0.001598
Ni	     -3.09579      5.18012      5.16471         0.039541     -0.000422      0.039475
Ni	     -1.03019      5.17971      3.10000         0.038881     -0.000039      0.038590
Ni	     -3.08305      7.19780      3.10829        -0.031316      0.058860     -0.022145
Ni	     -1.02183      3.16154      1.04725        -0.022173     -0.058797     -0.030885
O	     -0.87794      3.06602      3.10630         0.033559     -0.081493      0.112936
O	     -0.99885      7.39603      7.14141        -0.098681      0.018133     -0.015069
O	      1.03774      3.05548      1.19181         0.114462     -0.074464      0.032318
O	      0.95013      7.39254      5.19229        -0.018927      0.037265     -0.095919
O	     -0.90923      0.96524      5.26420         0.028439     -0.011022     -0.033366
O	     -0.98993      5.16701      1.07453        -0.109561      0.140037     -0.114319
O	      0.94870      1.07200      7.11994         0.035167      0.060063     -0.035756
O	      1.05916      4.99840      3.12298         0.085711     -0.048736      0.085918
O	      3.01102      2.96337      3.13155        -0.013890     -0.017999     -0.099673
O	     -1.02372      7.29318      3.25232         0.111596      0.082117      0.033568
O	      1.06193      2.96697      5.08041        -0.094636     -0.037152     -0.018521
O	     -2.93844      7.30390      5.16767         0.032448      0.075462      0.115928
O	      2.99011      1.00281      5.07850        -0.034476     -0.062573      0.033861
O	     -1.00723      5.36089      5.18933         0.084279      0.049297      0.086341
O	      1.13469      1.10930      3.22052        -0.033988      0.012880      0.028602
O	     -3.05580      5.19234      3.14023        -0.114027     -0.139606     -0.111161
