# total energy = -225.88083451 eV
 
CRYSTAL
PRIMVEC
0.006484 6.297179 6.360312 
6.193303 0.009026 6.357752 
4.130155 4.197842 0.004747 
PRIMCOORD
36 1
Li	      6.12029      4.24795      2.21545        -0.056773      0.025401      0.050749
Li	      4.10164      2.14223      2.16249        -0.019611      0.044442      0.022308
Li	      4.20324      6.23207      2.14171         0.033801     -0.015801      0.007187
Li	      6.16072      6.27363      4.25927        -0.057955      0.031425     -0.014405
Li	      4.21055      4.13560      4.24546        -0.010094     -0.015923     -0.045027
Li	      4.04259      2.17589      6.27441        -0.005870      0.014726     -0.058948
Li	      6.13024      4.28627      6.30356        -0.007920      0.006759     -0.020613
Li	      4.17975      8.33201      4.24961         0.033755     -0.095603      0.003365
Li	      4.21547      6.24239      6.38733        -0.057544     -0.013392      0.005406
Ti	      2.23794      6.16132      4.25431         0.841898     -0.286879     -0.038228
Mn	      2.11736      8.37765      6.39745         0.009977      0.024480      0.097238
Mn	      6.15352      2.14624      4.26119        -0.162712      0.209473     -0.046614
Cr	      4.11849      4.18888      0.02171        -0.055596      0.058325      0.123918
Cr	      8.24366      4.20772      8.41599        -0.048025     -0.061026     -0.060246
Cr	      4.17120      4.22337      8.44447        -0.084355     -0.077853     -0.064923
Cu	      6.21566      8.31479      6.35467        -0.097260     -0.014616     -0.041570
Cu	      6.15265      6.30231      8.42236         0.008426      0.050613     -0.141081
Ni	      4.09388      0.07216      4.24158        -0.096522      0.030250      0.082012
O	      6.17015      6.40142      6.41838        -0.008009     -0.021392      0.129228
O	      2.03850      2.21174      1.97738         0.018860     -0.051855     -0.099084
O	      4.02165      4.24085      1.98258         0.078822     -0.017588     -0.057861
O	      4.28073      2.09565      4.24555         0.070197      0.083768      0.003839
O	      6.21822      4.04209      4.24601        -0.067320     -0.033049      0.028790
O	      6.33168      2.03064      6.23895         0.039062     -0.008918      0.052786
O	      8.30984      4.25872      6.38734         0.041980      0.027083      0.050833
O	      2.04960      4.29340      4.06950         0.031051      0.224024     -0.041686
O	      4.04832      6.30695      4.23838        -0.745383     -0.105584     -0.002668
O	      4.05176      4.18398      6.52710         0.055425      0.044061      0.100291
O	      6.18186      4.31497      8.45464         0.055939     -0.090371      0.011500
O	      8.19747      6.32456      8.61159         0.114961      0.056705      0.151062
O	      2.01133      6.18561      6.24186         0.060917      0.049881     -0.091427
O	      4.04975      8.49528      6.32758         0.016517     -0.026636     -0.040527
O	      4.20204      6.18766      8.55581        -0.099368      0.021681     -0.049692
O	      6.28156      8.33725      8.69265         0.016191      0.070400      0.076825
O	      6.22108      6.44952     10.67320         0.153431     -0.061254     -0.037523
O	      8.20025      8.33444     10.64011        -0.000893     -0.075754     -0.045214
