# total energy = -224.03642076 eV
 
CRYSTAL
PRIMVEC
-0.017716 6.269703 6.308767 
6.146429 -0.017900 6.308625 
4.101376 4.183704 -0.016060 
PRIMCOORD
36 1
Li	      6.05820      4.11824      2.12031        -0.003537      0.039391      0.056190
Li	      4.11621      2.26275      2.11924        -0.014281      0.036683      0.060707
Li	      4.06613      6.21465      2.18078         0.010242     -0.061479      0.113006
Li	      2.14287      4.19872      2.19957         0.072997     -0.044160      0.064014
Li	      4.05427      4.20196      4.15207         0.048525      0.042083     -0.013840
Li	      6.07751      4.20337      6.29623        -0.003303      0.055007     -0.066544
Li	      4.11141      8.29206      4.14669         0.058471     -0.089006      0.009653
Li	      2.04764      4.15657      6.28558        -0.037189      0.003598     -0.098668
Li	      4.13237      6.17346      6.27977        -0.014565     -0.041096     -0.101103
Ti	      2.14307      2.05071      0.17245         0.371813     -0.130567      0.430260
Mn	      4.08704      6.25295     10.44695        -0.138516      0.170294      0.075412
Mn	      4.12237      2.13213      6.28453        -0.040025      0.121571     -0.041808
Cr	      1.99320      2.15957      4.15224        -0.089121      0.112062     -0.043462
Cr	      2.08303      6.18878      4.22212         0.079639     -0.028158      0.135776
Cr	      6.12670      6.22023      8.36183        -0.009682      0.087318     -0.136319
Cu	      4.11519      4.18258      0.07606         0.125409     -0.166789      0.405730
Cu	      6.12927      2.14509      4.15051        -0.083856      0.196812     -0.012083
Cu	      4.09620      4.17094      8.35873         0.015806      0.000539     -0.167772
O	      5.96570      4.25700      8.35214         0.097998      0.012829     -0.045481
O	      6.28989      8.26607      8.49269        -0.114651     -0.105393     -0.106369
O	      1.97671      2.15780      2.04690         0.029647     -0.010066     -0.412685
O	      4.09751      4.20620      2.05671         0.041823      0.049497     -0.481321
O	      4.03436      2.12310      4.13322         0.132200     -0.048812     -0.034469
O	      6.30020      4.34794      4.14805         0.083346     -0.138296      0.018109
O	      6.12083      2.05862      6.15718         0.046136      0.075621      0.175940
O	      8.28523      4.18798      6.15441        -0.429596     -0.064281     -0.065019
O	      1.99912      4.18889      4.20211        -0.026436     -0.001869      0.021585
O	      4.08216      6.23345      4.24571         0.008011      0.079762      0.029325
O	      4.10156      4.01527      6.29257        -0.004575     -0.074957      0.075158
O	      6.25900      6.27173      6.27366         0.003081     -0.002364      0.093523
O	      8.14665      6.25887      8.50229        -0.099510      0.032593      0.050617
O	      1.96814      6.36195      6.28250         0.349503      0.220163     -0.137428
O	      3.97596      8.39988      6.38274        -0.479499     -0.060851     -0.000561
O	      4.12449      6.19605      8.48034         0.073110     -0.068453     -0.063455
O	      6.10541      6.17800     10.37707         0.022705     -0.090216      0.185097
O	      8.15145      8.22799     10.70265        -0.082123     -0.109011      0.028286
