# total energy = -232.03994860 eV
 
CRYSTAL
PRIMVEC
0.016036 6.333836 6.328696 
6.243078 0.027227 6.317721 
4.176245 4.229404 0.003910 
PRIMCOORD
36 1
Li	      6.21505      6.38505     12.55942        -0.018704      0.014048     -0.034137
Li	      8.29448      2.20603      6.28199         0.000384      0.006269     -0.022934
Li	      4.17767      8.41616      8.38922        -0.019630     -0.031497     -0.046518
Li	      4.29072      6.31020     10.59822        -0.016634     -0.023774      0.019582
Li	      6.31345      8.34149     10.60739         0.027790     -0.027309      0.006597
Li	      6.25691      2.21683      8.33917         0.052407     -0.018091      0.000117
Li	      8.24424      4.26708      8.33942        -0.022807      0.002634      0.010019
Li	      6.33095      4.18460      6.41542         0.052054     -0.049921      0.026959
Li	      6.27664      6.30301      8.53912        -0.037450      0.012005      0.008447
Ti	      4.24643      4.19676      4.15578         0.478842      0.057370     -0.438485
Mn	      2.12130      6.36524      8.40445        -0.020850      0.018675      0.082095
Mn	      2.12378      2.09314      4.20812        -0.111529     -0.122700     -0.188576
Cr	      8.46654      6.23693      6.39505         0.063682     -0.218210      0.096110
Cr	      6.22847      4.32698     10.50422         0.030585     -0.035301     -0.080863
Cr	      4.20253      4.23459      8.42622        -0.113958      0.036712      0.032545
Fe	      6.17119      8.51388      6.35823         0.015925      0.043552      0.090074
Co	      4.17911      6.34745      6.34827         0.077645      0.164577     -0.029004
Ni	      8.27520      6.41108     10.49648         0.070304      0.030452     -0.063342
O	      2.11786      1.97988      2.27705         0.002806      0.011625      0.127313
O	      4.27828      4.21762      2.28695         0.012192     -0.005173      0.400661
O	      4.10372      2.23704      4.30762         0.011396      0.051018      0.106933
O	      6.10406      4.20626      4.31590        -0.415957     -0.012105     -0.004806
O	      6.09423      2.14584      6.33101        -0.192772     -0.014926     -0.002151
O	      8.30289      4.42384      6.35377         0.017753      0.262114      0.018641
O	      2.13104      4.29813      4.23135         0.022244     -0.094235      0.055194
O	      4.23115      6.31682      4.33147         0.227522     -0.164834     -0.796608
O	      4.10135      4.14991      6.32076         0.024625     -0.197637     -0.042562
O	      6.32988      6.45785      6.19017         0.259926     -0.015694     -0.006602
O	      6.17658      4.25433      8.51628         0.041666     -0.000640     -0.004140
O	      8.34190      6.44874      8.35877         0.006022     -0.005243     -0.207273
O	      2.12593      6.28249      6.25108        -0.265946      0.025344      0.059362
O	      4.22819      8.43931      6.24058        -0.115131      0.200713      0.011242
O	      4.07247      6.28183      8.32944        -0.046360     -0.100361      0.831427
O	      6.31456      8.58371      8.34850         0.026739      0.063104     -0.008800
O	      6.26857      6.27667     10.51437        -0.111912      0.000343     -0.003791
O	      8.41981      8.44748     10.43538        -0.012871      0.137096     -0.002726
