# total energy = -234.98648260 eV
 
CRYSTAL
PRIMVEC
0.005427 6.337457 6.203574 
6.355717 0.008213 6.200043 
4.217224 4.203293 0.025648 
PRIMCOORD
36 1
Li	     10.49509     10.51740     12.36734        -0.039822      0.031156      0.053772
Li	      8.47697      2.24524      6.14190        -0.026275      0.022843      0.031602
Li	      4.31737      0.05762      4.20891        -0.033669     -0.023982     -0.003886
Li	      6.39352      8.38498     10.43834        -0.020559      0.018491      0.002833
Li	      8.45177      4.23116      8.20461         0.014822     -0.018949      0.031960
Li	      6.33791      6.23263      4.12303         0.048337     -0.004370     -0.007270
Li	      6.33223      4.32189     10.30045        -0.065815      0.019937      0.042246
Li	      4.20638      6.32570      6.20080         0.013252      0.018162     -0.060909
Li	      6.34236      6.29284      8.41307         0.026486     -0.021772      0.005075
Ti	      6.22850      8.32064      6.14545        -0.266490     -0.151558      0.120786
Mn	      0.03324      2.14206      2.07072        -0.000123     -0.177190     -0.108511
Mn	      8.40374      6.37654     10.38633        -0.035431      0.170279     -0.046828
Cr	      6.33905      4.19889      2.10794        -0.203333      0.010431     -0.070588
Cr	      6.39408      4.27658      6.16987        -0.039147     -0.074501      0.082786
Cr	      4.25219      4.28220      8.32118         0.053957     -0.010299     -0.014988
Fe	      4.15371      2.06925      2.15406         0.099658      0.104884     -0.267107
Co	      4.23070      4.18541      4.15165         0.053672      0.231785     -0.119083
Co	      4.26701      2.07480      6.15397         0.139309     -0.223685     -0.120845
O	      2.14176      1.99726      2.04859        -0.004392     -0.006969      0.049231
O	      4.30594      4.13650      2.02575         0.120501      0.028097     -0.034804
O	      4.23701      2.13024      4.05990         0.074495      0.527958      0.298049
O	      6.29960      4.19997      4.13371        -0.538267     -0.049224     -0.005415
O	      6.34417      2.25883      6.34924        -0.039268      0.077770      0.012744
O	      8.36087      4.26521      6.22668        -0.088289      0.168821     -0.035513
O	      2.10388      4.35155      4.21717         0.313285     -0.058898     -0.102524
O	      4.09864      6.28171      4.01741         0.024347     -0.414038      0.182191
O	      4.24941      4.20736      6.28996        -0.078068      0.003482      0.096541
O	      6.37160      6.38579      6.17450        -0.102436      0.170519     -0.033956
O	      6.25232      4.26369      8.19754        -0.029931     -0.045722     -0.007608
O	      8.48979      6.44078      8.40745        -0.054766      0.006047      0.021166
O	      2.17173      6.16003      6.16180         0.031902     -0.087248      0.018921
O	      4.36619      8.36433      6.31887         0.469820     -0.037373     -0.072304
O	      4.14150      6.32874      8.31618         0.035677     -0.069325      0.062438
O	      6.38395      8.50381      8.18951         0.046996      0.020613     -0.000289
O	      6.54510      6.35630     10.38478         0.112612     -0.016181     -0.014502
O	      8.48876      8.29076     10.33183        -0.013049     -0.139987      0.014589
