# total energy = -229.70721520 eV
 
CRYSTAL
PRIMVEC
-0.015844 6.402812 6.217149 
6.113752 -0.018247 6.219534 
4.064628 4.259208 -0.001053 
PRIMCOORD
36 1
Li	     10.14128     10.62601     12.39902         0.004930      0.024628     -0.025318
Li	      4.06482      8.35601      8.26076        -0.013505     -0.021061     -0.016762
Li	      8.21173     10.51695     10.35818         0.031739      0.018961      0.013492
Li	      8.13384      6.41339      6.25109         0.015477      0.034867     -0.001106
Li	      6.19768      4.21015      6.26599        -0.001684      0.032355     -0.006294
Li	      6.02953      4.34382     10.35955         0.039850      0.002031      0.000147
Li	      8.10038      6.49884     10.36732        -0.011504      0.016798     -0.023340
Li	      3.99296      6.40726      6.33252         0.046545     -0.015696     -0.052579
Li	      4.06316      4.34144      8.17465         0.028284     -0.036454     -0.035333
Ti	      6.13809      6.33106      4.27619        -0.041595     -0.016184      0.375896
Mn	      2.09399      8.57051      6.21621        -0.009264     -0.093144     -0.050562
Mn	      1.95029      4.40311      6.25686         0.027621     -0.126914      0.063165
Cr	      6.11201      8.46678     10.35748        -0.035639     -0.094912     -0.063721
Cr	      4.04687      4.28327      4.15283        -0.089690      0.014545      0.144835
Cr	      6.05402      6.30587      8.29152         0.123064      0.032058     -0.056629
Fe	      6.01777      2.21430      8.24680         0.011322      0.046030     -0.018592
Cu	      2.09129      6.40142      8.27439         0.052699     -0.025454     -0.102787
Ni	      8.15956      4.27087      8.22660        -0.048369      0.079232      0.056168
O	      2.00291      2.25957      2.04758         0.027683      0.050864      0.102216
O	      4.13184      4.42091      2.15254        -0.013003     -0.026367     -0.021862
O	      4.04290      2.23999      4.15044        -0.084625     -0.014323     -0.029442
O	      6.06985      4.30056      4.12459         0.008149      0.003660      0.049383
O	      6.22987      2.13347      6.19179         0.021064      0.017007     -0.047049
O	      8.19006      4.04051      6.21742         0.016487      0.011112     -0.082339
O	      2.03664      4.10956      4.18754         0.032129     -0.059728      0.095466
O	      4.18749      6.31060      4.05347         0.094948     -0.043313      0.143345
O	      3.84871      4.29553      6.12601         0.056029     -0.009017     -0.015889
O	      6.08381      6.32057      6.14570         0.044853     -0.063053     -0.461613
O	      6.08609      4.23396      8.29124        -0.078829      0.028845      0.023411
O	      8.14057      6.31043      8.24501        -0.087955      0.044803      0.037634
O	      2.01459      6.52399      6.30198         0.018484      0.119503     -0.069647
O	      4.04978      8.51884      6.20812        -0.101484      0.031414      0.005384
O	      4.07555      6.32517      8.33415        -0.030580      0.016187      0.007508
O	      6.09229      8.32811      8.28392        -0.058213     -0.094565      0.000426
O	      6.11481      6.50831     10.25210        -0.015633      0.059835      0.059437
O	      8.07629      8.48909     10.55083         0.020215      0.055450      0.002949
