# total energy = -229.95952292 eV
 
CRYSTAL
PRIMVEC
0.022772 6.281517 6.208320 
6.364686 0.035291 6.196016 
4.265168 4.201710 0.001335 
PRIMCOORD
36 1
Li	      8.45038      2.16822      6.25560        -0.031853      0.011956     -0.016620
Li	      2.20843      6.28699      8.27144         0.043941     -0.031851     -0.028401
Li	      8.46654     10.47142     10.29077        -0.037533     -0.066522      0.050477
Li	      6.46661      8.47586     10.31836         0.110056      0.047398      0.025817
Li	      0.10890      2.13716      2.04639         0.109742      0.124422     -0.011665
Li	      2.12721      4.11342      2.01816        -0.048263     -0.028028     -0.020734
Li	      6.42426      4.16560      6.21595         0.035920     -0.048362      0.059787
Li	      4.24052      6.27968      6.29540        -0.031933     -0.026285     -0.024564
Li	      4.25000      4.30947      8.27889         0.051645      0.014153      0.010988
Ti	      8.60514      6.27525      6.30273         0.259280     -0.152904      0.064565
Mn	      6.32987      4.23306     10.28286        -0.102901      0.014519     -0.120257
Mn	      8.53844      6.35443     10.31670        -0.075733      0.252899     -0.088666
Cr	      4.25370      4.20777      0.03447         0.075206      0.076322     -0.169547
Cr	      4.30198      4.19983      4.10835         0.043741      0.030802      0.003869
Cr	      6.30327      6.33441      8.25830         0.069641     -0.257693      0.186348
Fe	      6.40048      6.18498      4.04002        -0.002241     -0.011393      0.298032
Cu	      4.25350      8.34893      8.25309        -0.044465     -0.021743      0.025898
Cu	      2.15635      4.22087      6.23800         0.054048      0.075890     -0.048604
O	      6.29723      8.32242      8.19786        -0.173438      0.109860      0.070171
O	      2.21594      2.10609      2.14479         0.105752     -0.044132     -0.202011
O	      4.25831      4.08554      2.05435         0.027851     -0.073466     -0.006384
O	      4.13579      2.20380      4.30850         0.012041      0.039184      0.223432
O	      6.29997      4.25142      4.16802        -0.086702     -0.068646     -0.037826
O	      6.25587      2.06991      6.25592        -0.365909     -0.086531      0.069697
O	      8.58272      4.34879      6.18749         0.098410      0.288892      0.075482
O	      2.20282      4.30006      4.15866         0.186554     -0.084796     -0.042144
O	      4.36478      6.25757      4.11958         0.085006     -0.112996     -0.039143
O	      4.22319      4.13135      6.12115         0.033604     -0.072273      0.036523
O	      6.47713      6.37078      6.23653         0.061079     -0.101834     -0.113774
O	      6.36490      4.31805      8.37932        -0.008838      0.041263     -0.081950
O	      8.39714      6.34971      8.24030        -0.079535      0.029817     -0.134102
O	      2.04025      6.22590      6.14119        -0.155126      0.083225     -0.018591
O	      4.33093      8.48359      6.00584         0.011461     -0.017093      0.012316
O	      4.34032      6.36466      8.26701        -0.040216      0.097836     -0.021197
O	      6.39561      6.31359     10.33545        -0.081784      0.037473      0.035683
O	      8.56896      8.24339     10.36230        -0.108507     -0.069362     -0.022904
