# total energy = -229.76818378 eV
 
CRYSTAL
PRIMVEC
-0.021407 6.286446 6.324043 
6.373305 0.013067 6.290336 
4.236829 4.156298 0.020021 
PRIMCOORD
36 1
Li	      4.20455      4.18312      0.20361         0.017095     -0.021204      0.070451
Li	      2.13223      2.09336      0.19328         0.038720     -0.020840     -0.105462
Li	      2.07054      0.16063      2.11467        -0.104903     -0.046413     -0.007663
Li	      4.06199      2.09756      2.15703        -0.013944      0.033346     -0.002724
Li	      4.14656      0.12967      4.15013        -0.005356      0.059636     -0.006617
Li	      6.29443      2.14671      4.19220        -0.022156     -0.001295     -0.028377
Li	      2.23931      3.98106      2.01805         0.060472     -0.006049     -0.049545
Li	      2.24431      2.02231      3.96205         0.061593      0.015854      0.016859
Li	      4.14701      6.28613      6.44561        -0.062711      0.031233      0.029575
Ti	      4.10123      8.29189      4.33513        -0.167283     -0.005797      0.382526
Mn	      6.31770      8.37915      6.37556        -0.045848     -0.017330      0.020140
Mn	      6.32375      6.29060      8.42334        -0.017471      0.051175      0.035683
Cr	      4.28484      4.14678      4.15751        -0.007390      0.010755      0.031117
Cr	      4.28413      2.08419      6.29222         0.058237     -0.096028     -0.037629
Cr	      2.08632      6.24331      4.23278        -0.074733      0.052056      0.036891
Fe	      6.46444      4.10741      6.21163        -0.038763      0.088393      0.045407
Ni	      0.15560      2.01606      2.06695        -0.143251      0.057921     -0.035137
Ni	      4.23395      4.26777      8.38830        -0.031428      0.025444      0.028302
O	      2.09916      2.08392      2.08724         0.204653     -0.006757     -0.013079
O	      4.21587      4.18672      2.21892         0.020398     -0.153862      0.030037
O	      4.24471      2.19910      4.32560        -0.027308     -0.022049      0.007274
O	      6.27305      4.19054      4.28283        -0.024956      0.046145     -0.113600
O	      6.28386      2.13877      6.34170        -0.022329     -0.075577     -0.087946
O	      8.37857      4.27074      6.26941         0.167097      0.021903      0.024380
O	      2.10260      4.22814      4.34333        -0.000595     -0.032859     -0.004450
O	      4.12072      6.31459      4.15696        -0.004821      0.046607      0.100934
O	      4.36549      4.14846      6.27666        -0.067996      0.003383     -0.087373
O	      6.45070      6.33592      6.47261        -0.018932      0.025126      0.046252
O	      6.33784      4.30515      8.42088         0.106401      0.070088      0.016114
O	      8.35737      6.33297      8.43839        -0.028228     -0.120368      0.002897
O	      2.10512      6.12298      6.22327        -0.028240      0.012507      0.015304
O	      4.18326      8.33652      6.14807        -0.032873     -0.000001     -0.366267
O	      4.44642      6.27719      8.42850         0.103369      0.118612     -0.009023
O	      6.40401      8.23979      8.33862        -0.067008     -0.074468      0.002387
O	      6.44507      6.15509     10.36197         0.007732     -0.038467     -0.054219
O	      8.57945      8.27729     10.49102         0.212756     -0.030819      0.066581
