# total energy = -236.51512597 eV
 
CRYSTAL
PRIMVEC
0.017503 6.323913 6.313864 
6.197856 0.023418 6.307986 
4.148095 4.228179 -0.000342 
PRIMCOORD
36 1
Li	      4.11763      4.19412      0.00896        -0.005035      0.031135      0.024444
Li	      4.14709      2.13864      2.16866         0.013976      0.053869      0.040563
Li	      6.12913      2.18316      4.22466        -0.009682      0.009091      0.020408
Li	      2.11885      4.18555      2.03907        -0.007785     -0.032530     -0.037334
Li	      2.19429      2.11460      4.27667         0.008322     -0.019066      0.007442
Li	      4.16664      4.06331      4.26462        -0.011446     -0.055242     -0.048857
Li	      4.07142      2.16731      6.22884         0.006569     -0.023093     -0.053773
Li	      4.21466      6.30369      6.35751        -0.000465     -0.018027      0.039617
Li	      6.20351      6.36637      8.32858        -0.022710     -0.016174     -0.040105
Ti	     10.27841      6.26955      8.36288        -0.150090     -0.136424     -0.088795
Mn	      8.23808      6.35362     10.51981        -0.006383      0.031289      0.069058
Mn	      6.27628      8.37719      6.35191        -0.058122     -0.003148     -0.030576
Cr	      2.10665      2.12089      0.03584        -0.011100      0.036478      0.063896
Cr	      6.20738      4.22071      2.13208         0.076752      0.000826      0.026609
Cr	      6.16603      4.32551      6.28698         0.021497     -0.034406     -0.018170
Fe	      4.15716      0.19715      4.18974         0.027674     -0.152019      0.009992
Fe	      0.03897      4.22001      4.20706        -0.042113      0.014435     -0.062889
Co	      8.27975      8.44968      8.41260         0.050572      0.104893     -0.203325
O	      1.99818      2.05110      2.05768        -0.093373     -0.072377     -0.022183
O	      4.17064      4.35876      2.11565        -0.020404      0.303820     -0.031223
O	      4.18868      2.04725      4.17136         0.030353      0.157736     -0.056607
O	      6.28250      4.23634      4.21138        -0.071508     -0.028003     -0.032562
O	      6.27623      2.23323      6.41174         0.000744      0.036539      0.163481
O	      8.21321      4.16222      6.23512         0.011641     -0.065149      0.037635
O	      2.02927      4.28856      4.36110         0.054414      0.106249     -0.010580
O	      4.00676      6.43255      4.07618        -0.090268      0.002327     -0.108613
O	      4.13322      4.23538      6.27136         0.019889      0.006650     -0.096685
O	      6.20507      6.29158      6.31677        -0.049643     -0.089335     -0.036821
O	      6.20646      4.16290      8.40385         0.018172     -0.062909     -0.026775
O	      8.36512      6.44068      8.38339         0.237982     -0.291276      0.097960
O	      2.07740      6.41813      6.40857         0.034817      0.104098      0.056938
O	      4.16730      8.45076      6.23179         0.049160     -0.001952      0.049969
O	      4.07757      6.17999      8.52132        -0.094404      0.271168      0.093188
O	      6.24587      8.52628      8.27178        -0.047014      0.007678     -0.037596
O	      6.27563      6.28641     10.47150         0.143197     -0.051546      0.056587
O	      8.33478      8.42498     10.62045        -0.014187     -0.125604      0.185682
