# total energy = -234.02653538 eV
 
CRYSTAL
PRIMVEC
-0.005173 6.229872 6.321870 
6.294726 -0.017205 6.333977 
4.196360 4.161085 -0.011296 
PRIMCOORD
36 1
Li	      6.34355      6.23046     12.61334        -0.004422     -0.001450      0.004342
Li	      2.15270      6.20101      8.29107         0.032974      0.011418     -0.064625
Li	      6.20581      6.29194      4.40734        -0.009789      0.003341      0.008144
Li	      6.20738      4.22485      6.39738         0.009957     -0.044561     -0.005993
Li	      0.06502      4.10378      4.22414        -0.010884     -0.011572      0.061382
Li	      6.34678      8.22588      6.34748         0.004262      0.020752      0.027055
Li	      4.28586      6.15174      6.30514         0.005566      0.049224      0.008381
Li	      4.25365      4.23860      8.30744        -0.020686      0.025723     -0.009051
Li	      6.25436      6.15892      8.34520        -0.008961      0.013085      0.063457
Ti	      4.32254      8.24933      8.22051         0.253528     -0.089763     -0.472611
Mn	      6.30315      2.06949      4.24381         0.043384      0.033384     -0.007180
Mn	      8.27124      6.26767      6.38133         0.002150     -0.019004     -0.001810
Cr	      6.29826      2.06569      8.42058         0.046775     -0.002956     -0.026116
Cr	      8.33938      4.12388      8.42796        -0.000382      0.006084      0.019347
Cr	      4.20823      4.14542      4.25507         0.036926     -0.039055      0.000452
Fe	      8.37068      4.14227      4.21106        -0.018764      0.044680      0.007455
Fe	      2.10519      6.21229      4.31887        -0.053985      0.101517     -0.141297
Cu	      8.41348      8.31293     12.63095         0.040534     -0.029142      0.007520
O	      2.06558      2.13980      1.99988        -0.031361     -0.057725      0.144766
O	      4.10993      4.09963      2.18223         0.042097      0.019816     -0.004764
O	      4.19188      2.05738      4.17667        -0.071119      0.076149     -0.075448
O	      6.28437      3.99189      4.23270        -0.036815      0.074982     -0.028114
O	      6.04359      2.04227      6.41070        -0.032888      0.033547      0.085295
O	      8.36865      4.14444      6.31250        -0.006201      0.150079      0.057626
O	      2.17808      4.21893      4.11978        -0.045823     -0.146893     -0.009739
O	      4.17793      6.14167      4.11983         0.010653     -0.025152     -0.010215
O	      4.15706      4.10452      6.22854         0.008923     -0.008132     -0.055572
O	      6.40442      6.21624      6.35055        -0.060296      0.001390      0.005170
O	      6.37049      4.02870      8.48544        -0.007613     -0.002821      0.007621
O	      8.47034      6.14795      8.53899        -0.023263     -0.001809     -0.004421
O	      2.10871      6.37395      6.19764        -0.007838     -0.170455      0.185287
O	      4.32944      8.31002      6.41191         0.034524      0.029958      0.447473
O	      4.16478      6.34827      8.54725        -0.006333      0.136366     -0.077550
O	      6.15703      8.34176      8.46162        -0.217544      0.018169     -0.060285
O	      6.26491      6.36848     10.54377         0.061658     -0.071407      0.030893
O	      8.34338      8.36759     10.59474         0.041057     -0.127768     -0.116875
