# total energy = -234.26766221 eV
 
CRYSTAL
PRIMVEC
0.017435 6.363715 6.257613 
6.238079 -0.001641 6.277354 
4.149455 4.246451 0.008454 
PRIMCOORD
36 1
Li	      6.30675     10.50785      8.42735        -0.010573     -0.002158      0.003053
Li	      4.10647      0.07639      4.08574        -0.007117     -0.015202     -0.013989
Li	      6.11560      2.19234      4.14702         0.011515     -0.024980      0.008109
Li	      0.04999      2.11455      2.08457        -0.003235     -0.001384     -0.008884
Li	      4.21648      4.15468      4.17957        -0.059322     -0.039200     -0.017562
Li	      4.12369      2.19631      6.15973         0.007988     -0.008618      0.013961
Li	      6.30898      8.43240      6.35691         0.042433     -0.009572     -0.041456
Li	      4.18377      6.33215      6.32954        -0.010054     -0.046990      0.014104
Li	      6.15727      6.46075      8.31712         0.053791     -0.020237     -0.011494
Ti	      8.33500      4.35737      8.34039         0.069932      0.186941     -0.003816
Mn	      6.23996      6.28762      4.20699        -0.017603     -0.045697      0.010623
Mn	      4.08544      4.33800      8.35396         0.031566     -0.030241     -0.077706
Cr	      4.22011      8.41016      8.35712         0.050001      0.008195      0.014513
Cr	      0.02463      4.25379      4.19576         0.052452      0.030809      0.040171
Cr	      2.14099      6.36517      4.19607         0.025109     -0.029488      0.046401
Fe	      6.30136      0.10467      6.24870        -0.126957     -0.052403      0.061016
Fe	      6.16818      4.20270      6.17363        -0.001919     -0.015328      0.098399
Ni	      2.05096      2.11392      0.03590         0.053882     -0.000910     -0.053092
O	      2.13884      2.22722      2.18636        -0.000596      0.061010      0.021785
O	      4.03797      4.15923      2.02226        -0.075142      0.004669      0.052669
O	      4.04305      2.11455      4.08340         0.022027     -0.015378     -0.001545
O	      6.16828      4.17357      4.27564         0.058040     -0.002150     -0.211616
O	      6.26540      2.09968      6.29705        -0.125554      0.046037     -0.020139
O	      8.27768      4.19384      6.41223         0.047201      0.092832      0.092443
O	      2.05184      4.33317      4.11104        -0.014056      0.085571     -0.067798
O	      4.19184      6.49161      4.18641        -0.046860      0.051648      0.013015
O	      4.21633      4.21522      6.46835        -0.144648     -0.013334      0.010313
O	      6.26776      6.22200      6.11694        -0.006638      0.102688      0.051853
O	      6.30274      4.23594      8.40424         0.013298      0.033522      0.014219
O	      8.36238      6.23958      8.45282        -0.035247     -0.241866      0.007511
O	      2.04390      6.44545      6.18604         0.118831     -0.088278     -0.000641
O	      4.11582      8.61390      6.24980         0.112396     -0.023815      0.011695
O	      4.17453      6.42125      8.35650        -0.000684      0.061690     -0.021325
O	      6.25374      8.46480      8.34908        -0.030699      0.001955      0.045705
O	      6.34930      6.27153     10.52686        -0.042768     -0.028382     -0.068422
O	      8.41271      8.39837     10.35288        -0.010791     -0.011956     -0.012074
