# total energy = -92.37670173 eV
 
CRYSTAL
PRIMVEC
2.065050 4.200840 2.007280 
4.094031 -2.078695 -2.014248 
0.001242 4.254049 -4.122336 
PRIMCOORD
16 1
Li	      2.01584      2.17758     -0.10150        -0.000388      0.025050     -0.021468
Li	      2.06258      0.07829     -2.08985         0.014149      0.008982     -0.010696
Li	      4.09247      2.10576     -2.01913        -0.002335     -0.014026      0.031809
Li	      0.01464      2.06143     -1.97900        -0.009887     -0.019888      0.012793
Mn	      2.05912      4.22366      1.93356        -0.022351      0.050009     -0.104087
Mn	      2.04380      2.14102     -4.05868        -0.016618     -0.078992      0.032998
Ni	      2.04666      4.22095     -1.98448        -0.014612      0.026337      0.074861
Ni	      4.10429      4.27359     -4.13338         0.018351      0.040758     -0.001474
O	      4.05625      4.44581     -2.10494         0.111355      0.065280      0.110585
O	      4.02712      2.20549     -4.18848        -0.079224     -0.114398     -0.011735
O	      4.22547      2.05935      0.06965         0.008988      0.104810      0.041037
O	      4.11419     -0.18537     -2.00550         0.004493     -0.056001     -0.132388
O	      2.01795      4.19684      0.05543        -0.014587      0.007752      0.152407
O	      2.10319      2.19503     -2.17879         0.004521     -0.119131     -0.062389
O	      2.16419      6.41994     -2.10816         0.066580      0.085932     -0.008193
O	      1.96258      4.12801     -4.07857        -0.068434     -0.012476     -0.104058
