# total energy = -224.60956432 eV
 
CRYSTAL
PRIMVEC
0.023775 6.208074 6.286690 
6.301142 0.006721 6.304118 
4.208781 4.158197 -0.003670 
PRIMCOORD
36 1
Li	      8.44529      8.33011     12.54270         0.006491      0.019883     -0.003537
Li	      6.38264      4.10776      2.25943         0.010293     -0.027769      0.025957
Li	      8.28277      4.16955      4.18221        -0.003697     -0.016830      0.023054
Li	      4.38217      4.10102      4.38434         0.037983     -0.007746      0.019238
Li	      8.30172      6.32582      6.30917         0.019556     -0.034341      0.020404
Li	      6.30994      4.25694      6.19475         0.027333     -0.012572      0.025516
Li	      4.25248      6.10198      6.38350        -0.025420     -0.002383      0.009279
Li	      4.17318      4.22256      8.29545        -0.004134      0.014046     -0.012259
Li	      6.19576      6.26528      8.24089        -0.014094     -0.036367     -0.020318
Ti	      6.32263      2.07634      8.30703        -0.125178      0.017202     -0.284120
Mn	      4.27809      8.18389      8.43801         0.085173      0.091030      0.050005
Mn	      8.40197      4.16101      8.34566         0.049745      0.029572     -0.197254
Cr	      0.04701      6.20284      6.28849        -0.023878      0.129054      0.072493
Cr	     10.46061      8.30379     10.48061        -0.161708      0.046282      0.025200
Cr	      2.13308      6.20535      4.19978        -0.052829      0.076380     -0.030683
Ni	      6.31904      2.17007      4.21608         0.025581     -0.060993      0.073011
Ni	      6.36994      8.26789      6.32053        -0.079482      0.068440      0.040284
Ni	      6.36929      6.13872      4.27835        -0.037512      0.064803     -0.109703
O	      4.02753      4.13955      6.32375         0.253605     -0.000133      0.001205
O	      2.12821      2.15503      2.12319        -0.032105     -0.023170     -0.069515
O	      4.28773      4.19439      2.01995         0.126636      0.032593     -0.045731
O	      4.22086      2.08526      4.00758         0.022940      0.039034     -0.129638
O	      6.32314      4.15383      4.27535        -0.030240     -0.017675     -0.021513
O	      6.34685      2.02992      6.40163         0.037257     -0.031133      0.332106
O	      8.54206      4.16620      6.44938         0.030244     -0.016419      0.011079
O	      1.98229      4.16797      4.04705        -0.015839      0.032975      0.023441
O	      4.17107      6.28686      4.06040        -0.018141     -0.031684     -0.034835
O	      6.33396      6.36954      6.23431        -0.052329     -0.198444      0.212970
O	      6.26222      4.01515      8.45288        -0.112650     -0.097759      0.033856
O	      8.56070      6.13026      8.45630         0.116308      0.012179      0.048350
O	      2.06466      6.07872      6.16808        -0.005849      0.164320     -0.034823
O	      4.33067      8.35549      6.28783        -0.104095     -0.048237     -0.017813
O	      4.20026      6.38853      8.37432        -0.051791     -0.004534     -0.004172
O	      6.14402      8.26983      8.42424        -0.077708     -0.010416     -0.020873
O	      6.40495      6.17655     10.57827         0.019966     -0.097181      0.013312
O	      8.46209      8.20390     10.51562         0.159565     -0.062008     -0.023973
