# total energy = -210.96593054 eV
 
CRYSTAL
PRIMVEC
0.031216 6.309204 6.482892 
6.109126 0.050925 6.462886 
4.052429 4.172676 0.053185 
PRIMCOORD
36 1
Li	      6.06170      4.25380      2.38232         0.012592      0.018134     -0.014728
Li	      8.06875      4.29865      4.43066         0.069033     -0.013353      0.037660
Li	      6.09849      2.14152      4.40763         0.013100      0.013626      0.013961
Li	      6.13342      2.21255      8.47945        -0.012990      0.011032     -0.019916
Li	      4.20995      4.13830      4.31595        -0.091457      0.019522      0.038627
Li	      6.09323      4.14639      6.33212        -0.001950      0.015604      0.078375
Li	      8.06716      6.32981     10.83937         0.023760     -0.013310     -0.059666
Li	      6.11266      8.41206      6.67599         0.008148     -0.061660      0.023281
Li	      6.16316      6.36601      8.92975         0.024348      0.017009     -0.060160
Ti	      4.09879      6.30491      6.33682         0.284157      0.055060      0.030319
V	      2.21154      4.25720      2.17618        -0.200501      0.009034     -0.110550
V	      4.09987      4.46445      8.69280         0.099519     -0.182677     -0.132991
Co	      2.04367      2.10066      4.26633         0.118272     -0.897645      0.369044
Co	      4.08530      2.15947      6.36251        -0.105547     -0.005133      0.141595
Cu	      6.11043      4.29840     10.78183         0.009283     -0.116403     -0.002782
Ni	      0.09574      6.27728      6.38788        -0.056635     -0.075821      0.115374
Ni	      1.97114      2.04482      0.11170         0.009643      0.116740      0.059309
Ni	      4.19540      8.37217      8.76687         0.037872     -0.002784     -0.074505
O	      6.10062      6.20268     10.88124        -0.063494      0.116271     -0.153205
O	      2.04020      2.24970      2.27088        -0.002180      0.251427     -1.191907
O	      3.98357      4.18273      2.17289         0.220502      0.040654      0.076277
O	      3.96542      2.14997      4.27922         0.009557     -0.010754      0.406211
O	      6.09978      4.38489      4.33825         0.046919     -0.112156     -0.150148
O	      6.08388      2.03906      6.42103        -0.440993      0.084149     -0.146203
O	      8.11766      4.10777      6.77609        -0.070326      0.109942     -0.125601
O	      1.97067      4.11186      4.02870         0.006540      0.405478     -0.049509
O	      4.10849      6.34924      4.44408        -0.049089     -0.052965      0.043778
O	      4.04338      4.36516      6.66243         0.009571      0.154625     -0.099992
O	      6.07030      6.37229      6.27370         0.080880      0.258254      1.078669
O	      5.88866      4.17026      8.51346        -0.125254     -0.023006     -0.059533
O	      8.09035      6.10223      8.58701         0.036931     -0.009488     -0.118450
O	      2.16047      6.35015      6.47165         0.117924     -0.155368     -0.094045
O	      4.07853      8.29032      6.74855         0.127735     -0.097394     -0.040922
O	      4.14401      6.24039      8.57465        -0.059278      0.096968      0.043080
O	      6.31430      8.37681      8.71999        -0.033668      0.030400      0.059694
O	      8.17929      8.39832     10.57866        -0.052924      0.005988      0.089562
