# total energy = -214.83757983 eV
 
CRYSTAL
PRIMVEC
0.033199 6.266528 6.109942 
6.200585 -0.035423 6.179546 
4.135530 4.225120 -0.025785 
PRIMCOORD
36 1
Li	      6.22004      4.18941      2.13354         0.006001     -0.019181      0.006094
Li	      4.22647      6.30001     10.15457        -0.013361      0.058791     -0.033137
Li	      6.20528      8.29636     10.19830        -0.037277      0.020724     -0.003453
Li	      2.08747      2.10251      4.07643         0.060999     -0.022307     -0.017604
Li	      4.17246      2.07235      6.14906         0.060760     -0.063372     -0.028172
Li	      6.26838      4.23097     10.17412        -0.037782      0.070591     -0.046183
Li	      2.12076      4.12957      6.11555        -0.054476      0.053821     -0.002624
Li	      8.20639      8.39342      8.27974        -0.010233      0.046168      0.005202
Li	      6.27618      6.26434      8.27202        -0.066797      0.014917     -0.030692
Ti	      8.28665      8.27897     12.14673        -0.176075      0.057872     -0.156945
V	      4.31858      8.33220      8.19769        -0.192849      0.150783     -0.235199
V	      6.09627      4.36348      6.14139         0.074357     -0.018769      0.115594
Co	      6.18240      6.25933     12.18412         0.137562     -0.210544      0.285207
Co	      8.28639      4.16985      8.19231        -0.041575     -0.038106     -0.110497
Co	      2.07968      6.25043      4.03258        -0.382000     -0.025038     -0.084094
Cu	      4.15418      6.32131      2.08100         0.014064      0.015111      0.114262
Cu	      4.10361      4.17214      4.10392         0.183568     -0.080676      0.115041
Cu	      4.13909      6.27440      6.14471         0.022870     -0.193283     -0.127242
O	      2.06042      2.22044      1.97069         0.067123      0.005973      0.042293
O	      4.01025      4.05399      1.89617        -0.092213      0.114086     -0.716205
O	      4.10662      2.19198      3.97354        -0.031192     -0.152880      0.378047
O	      6.20766      4.14775      4.32604        -0.000394      0.005013     -0.163634
O	      6.29324      2.11515      6.24817         0.080447     -0.362720     -0.246999
O	      8.15376      4.08922      6.21260         0.038173     -0.027782      0.001444
O	      2.10977      4.31299      3.94389        -0.072112      0.026016      0.028869
O	      4.04656      6.15779      4.09971         0.072191      0.093621     -0.047958
O	      4.35823      4.04457      6.35887        -0.236540     -0.137118      0.164453
O	      6.22966      6.15357      6.11642        -0.019507      0.247588     -0.011412
O	      6.38131      4.23911      8.04384         0.012088      0.112033      0.073078
O	      8.38705      6.09156      8.30258        -0.064511     -0.000586      0.142027
O	      2.09293      6.34492      6.01625        -0.045354     -0.055893     -0.062792
O	      4.02815      8.45584      6.16475         0.148959      0.468808     -0.323847
O	      4.09109      6.45656      8.11298        -0.061991     -0.203638      0.313262
O	      6.07450      8.41717      8.11313         0.455375     -0.003198     -0.008868
O	      6.33863      6.24276     10.23872         0.160452      0.097248      0.520001
O	      8.31119      8.23558     10.26864         0.041251     -0.044072      0.152683
