# total energy = -213.15318834 eV
 
CRYSTAL
PRIMVEC
-0.009727 6.332249 6.251777 
6.289005 -0.008958 6.249477 
4.188772 4.216684 -0.002289 
PRIMCOORD
36 1
Li	      6.38969     10.40650      8.35828         0.055899     -0.001339     -0.012626
Li	      4.29638      8.33010      8.33261        -0.016627     -0.041668     -0.011981
Li	     10.42616      6.32580      8.36236        -0.001308     -0.002139      0.046699
Li	      4.18572      4.20066      4.16663        -0.072162      0.045385     -0.018757
Li	      8.33997      6.40169     10.35315         0.010746     -0.044533     -0.099461
Li	      6.47221      8.44029      6.46304        -0.058255      0.000830     -0.012150
Li	      4.15195      6.18114      6.45116        -0.033448      0.071635     -0.042288
Li	      4.10733      4.28438      8.25443        -0.068005      0.098875      0.066649
Li	      6.19988      6.43051      8.38448         0.048638     -0.022891     -0.029824
Ti	      4.29614     10.47690      6.30184         0.282395     -0.156482      0.079615
V	      2.08508      2.08914      0.07086         0.044844      0.045018     -0.208931
V	      6.24470      6.32109      4.34764        -0.210781      0.595628     -0.078546
Co	      8.38096      4.38321      8.33155         0.055339     -1.230024      0.233888
Co	      6.17000      4.22325      6.34464         0.114962      0.244239     -0.255132
Co	      6.25475      4.22621     10.29897         0.099953     -0.110633      0.315755
Ni	      4.17042      6.33972     10.29936         0.005785     -0.072489      0.107293
Ni	      6.25006      8.39259     10.30082         0.050603      0.123179      0.088159
Ni	      4.20232      2.18999      6.27029        -0.029400     -0.232661      0.362370
O	      2.08267      2.18852      1.88143        -0.021135      0.424071      0.220056
O	      4.09861      4.22089      1.91220        -0.410483      0.236772     -0.266835
O	      4.02913      2.08895      4.17687        -0.024420      0.048511     -0.055607
O	      6.30054      4.42373      4.17565        -0.086735     -0.164195      0.117422
O	      6.32651      1.99431      6.15384         0.025009     -0.034522      0.016047
O	      8.35629      4.16270      6.24555        -0.105616      0.056619     -0.456329
O	      2.09875      3.99728      4.06716        -0.031216     -0.174111      0.190420
O	      4.44484      6.34495      4.12176         0.119227      0.051480      0.015266
O	      4.25700      4.15746      6.23327         0.225858      0.180935      0.073112
O	      6.29621      6.38157      6.12579        -0.050719     -0.170207      0.045270
O	      6.35853      4.17974      8.32415         0.467755      0.202652     -0.098309
O	      8.38911      6.20334      8.33846        -0.036972     -0.122645     -0.272622
O	      2.00734      6.42465      6.23200        -0.416227     -0.042618      0.069114
O	      4.05961      8.54851      6.16731         0.100925      0.242905     -0.127005
O	      4.19666      6.30622      8.35516        -0.079620      0.046078     -0.011542
O	      6.28118      8.43760      8.38295         0.003804      0.045139     -0.152758
O	      6.22560      6.31821     10.53509         0.093674     -0.099093      0.168648
O	      8.35654      8.46164     10.61249        -0.052285     -0.037700     -0.005080
