# total energy = -217.02130999 eV
 
CRYSTAL
PRIMVEC
0.016386 6.315630 6.231092 
6.024385 0.032517 6.214171 
4.041349 4.223745 -0.002745 
PRIMCOORD
36 1
Li	      8.07310      8.40359     12.35267        -0.021239      0.015561     -0.013772
Li	      2.02885      6.32016      8.24102        -0.038922      0.022435     -0.011923
Li	      8.06551      4.25704      4.20899         0.015514      0.023506      0.016611
Li	      6.02551      2.08026      4.19038         0.000989     -0.037902     -0.007955
Li	      8.03868      4.33944      8.25455         0.011458      0.009183      0.011051
Li	      6.06215      6.28670      4.22793         0.013087      0.018761     -0.064381
Li	      2.00307      6.33046      4.26828        -0.019431      0.032058     -0.008999
Li	      1.97838      4.30179      6.21739         0.003845      0.073644     -0.009397
Li	      6.05837      6.31273      8.21089         0.045068      0.026356     -0.006811
Ti	      7.95658      8.47205      8.37305        -0.125030     -0.223386      0.366589
V	      3.95797      2.09355      2.05743        -0.097363      0.077886      0.105672
V	      3.98660      4.21641      4.17714        -0.233401     -0.103469     -0.091178
Co	      6.09610      6.38845     12.40649         0.052674     -0.121334     -0.008402
Co	      0.07985      2.11194      2.08845         0.017855      0.075702     -0.037423
Co	      8.04682      6.32863      6.18882        -0.027530     -0.008483     -0.003121
Co	      0.10226      4.25348      4.13637         0.081999     -0.008438      0.073482
Cu	      6.10284      4.24876      6.21527         0.081347     -0.159864     -0.156476
Cu	      4.02094      6.36639      6.17861        -0.097749      0.111242      0.014551
O	      2.16310      2.09700      2.08858         0.111263     -0.044311      0.029718
O	      4.07188      4.12423      2.11351         0.007729      0.013754      0.056433
O	      4.01818      2.19053      4.13356        -0.005686      0.084991      0.000740
O	      5.86703      4.20786      4.24347         0.237104      0.067866      0.190538
O	      5.96276      2.06239      6.23837        -0.112601      0.206665      0.065199
O	      8.21112      4.41197      6.23310        -0.137301      0.075030      0.035962
O	      2.13615      4.22408      4.11752         0.084735      0.058236      0.062564
O	      4.02705      6.27462      4.18620         0.023076     -0.009433     -0.111143
O	      3.92300      4.03296      6.19480         0.016639     -0.127381      0.005942
O	      6.09289      6.22251      6.20951         0.138268     -0.091104     -0.024649
O	      5.97567      4.23261      8.20331        -0.086135     -0.061886      0.020431
O	      8.07156      6.49001      8.12237        -0.007418      0.157235      0.025137
O	      1.98326      6.38469      6.24802         0.060261     -0.036511      0.005195
O	      4.06891      8.63462      6.34006         0.003374     -0.168894     -0.101777
O	      4.03047      6.32207      8.19400        -0.000846     -0.038730      0.052854
O	      6.01979      8.41498      8.32861         0.128928      0.000773     -0.028079
O	      6.05422      6.28029     10.57071        -0.039730      0.022545      0.016011
O	      8.09685      8.46295     10.20732        -0.084831      0.067697     -0.469194
