# total energy = -216.84978177 eV
 
CRYSTAL
PRIMVEC
0.007173 6.149160 6.262863 
6.232822 0.013784 6.256175 
4.164348 4.103898 0.000274 
PRIMCOORD
36 1
Li	      8.32417      8.23751     12.47203        -0.040090     -0.043676      0.005497
Li	      6.25176      4.05558      2.18694         0.038200     -0.034671      0.096571
Li	      8.22949     10.11531     10.48556        -0.096844      0.021512      0.041223
Li	      6.19724      6.15383      4.14671        -0.022011     -0.049593      0.085616
Li	      6.27851      4.08149      6.28655        -0.029115      0.000737     -0.066702
Li	      6.23250      4.11334     10.24929         0.087305      0.065157     -0.032865
Li	      2.11159      4.15114      6.27614         0.040317     -0.016522      0.034146
Li	      4.18661      4.11944      8.38102        -0.024980      0.005932     -0.113661
Li	      6.26340      6.07366      8.39300        -0.010166      0.057772     -0.033369
Ti	      4.13249      1.97569      2.22453         0.155506     -0.279658      0.150198
V	      0.03155      6.12417      6.22672         0.243559      0.187385     -0.219109
V	      4.26088      6.11837      6.22851         0.199677     -0.089689      0.150770
Co	      6.28209      8.20149     10.44910        -0.048440     -0.137917     -0.187706
Co	      8.32889      4.15182      8.32599        -0.053793      0.155842      0.013838
Co	      8.21996      6.19835      6.27014         0.058019     -0.027333      0.189377
Co	      8.34236      6.19274     10.36767        -0.216166      0.166318     -0.007420
Ni	      0.07957      2.13321      2.10696        -0.016040     -0.016267     -0.012181
Ni	      4.18185      4.12059      4.18625         0.165695     -0.075852      0.034129
O	      2.15415      2.17852      2.11198         0.214516      0.002010      0.003694
O	      4.10964      4.09504      2.02982        -0.038907     -0.108587     -0.133623
O	      4.06471      2.03801      4.15674         0.793655     -0.062962      0.003844
O	      6.21105      3.91317      4.21701         0.117119     -0.006613      0.001686
O	      6.24737      1.90672      6.22386         0.015247     -0.120522     -0.316300
O	      8.45039      4.14034      6.35359        -0.123874      0.495145      0.066214
O	      2.11450      4.29314      3.99584        -0.028449     -0.041533      0.078530
O	      4.19030      6.15347      4.23171        -0.111947      0.206596     -0.007898
O	      4.10209      4.19798      6.25436        -0.002999     -0.366907      0.072219
O	      6.04781      6.23178      6.23488        -0.145728      0.022758     -0.033417
O	      6.42449      4.11113      8.28947         0.075809      0.150828      0.018467
O	      8.40262      6.10466      8.33697        -0.037500     -0.172774     -0.367638
O	      2.10490      6.16970      6.14773        -0.104713     -0.045781      0.001033
O	      4.19508      8.30642      6.38310        -0.029877     -0.027299     -0.032745
O	      4.08645      6.24225      8.21751        -0.042416      0.274563      0.000420
O	      6.06731      8.20250      8.49056        -0.113538     -0.050717      0.420625
O	      6.20974      6.23733     10.54853         0.194561     -0.079988      0.062951
O	      8.31851      8.07428     10.37974        -1.061593      0.042309      0.033587
