# total energy = -218.41039289 eV
 
CRYSTAL
PRIMVEC
-0.007741 6.110984 6.208779 
6.239147 -0.047202 6.248069 
4.142260 4.082792 -0.014501 
PRIMCOORD
36 1
Li	      4.28801     10.10866      6.36433        -0.050334      0.011376     -0.052604
Li	      1.98712      0.06927      1.92739         0.022035     -0.008365      0.079188
Li	      4.03688      2.08750      1.98302        -0.046230      0.007350      0.067625
Li	      8.25450      4.06252      4.22372        -0.010854     -0.035960      0.004677
Li	      2.17759      4.02659      1.97516         0.010769     -0.022628      0.051811
Li	      2.11738      1.92911      4.05592         0.058705     -0.041077      0.020396
Li	      2.10779      6.13427      4.29987         0.038345      0.022253     -0.011447
Li	      2.02708      4.26730      6.24304         0.001831     -0.074681     -0.007731
Li	      3.96350      6.12574      6.21191         0.007063      0.004717     -0.072670
Ti	      6.08882      6.07443      8.23622        -0.309399      0.171561     -0.003925
V	      6.24745      8.11501     10.38779         0.053489      0.074460      0.003738
V	      0.24935      4.04770      4.19170         0.083854     -0.053630      0.055349
Co	      2.12522      8.08879      6.29451         0.214693     -0.042410      0.010518
Co	      0.02008      2.04136      2.08500         0.210716     -0.138875      0.033488
Co	      4.12375      4.08617      4.12117        -0.054379      0.089191     -0.006924
Co	      8.33068      6.04393      6.23025        -0.003720      0.025542     -0.125508
Co	      6.26447      4.04014      6.25351         0.010866     -0.021350     -0.149940
Cu	      4.07753      4.04690      8.22106        -0.095745      0.104717      0.150536
O	      1.94146      2.04263      2.06970        -0.168104      0.006754     -0.041935
O	      4.12341      4.23077      2.14896        -0.042974      0.029533      0.567918
O	      4.33646      1.96076      4.29599        -0.185574      0.124431      0.061694
O	      6.21835      3.95085      4.33883         0.030236      0.114987      0.068158
O	      6.14043      2.09397      6.27365        -0.088862     -0.001750      0.054999
O	      8.17774      4.09530      6.23667        -0.034069      0.061464      0.018215
O	      1.99891      4.07321      4.17195         0.107925     -0.004732     -0.074989
O	      4.10145      6.24158      3.97746         0.032552     -0.224268     -0.021136
O	      4.28987      3.93733      6.19920         0.171299     -0.086188     -0.569976
O	      6.39049      5.97950      6.28354         0.034675     -0.026520      0.121838
O	      6.33095      4.04455      8.29673         0.034997      0.006568     -0.023251
O	      8.33818      6.17251      8.15118         0.022984     -0.035450     -0.044157
O	      2.06286      6.14554      6.21369        -0.011141      0.076198      0.007429
O	      4.16002      8.14436      6.03578        -0.070165      0.029981      0.087329
O	      4.24920      5.99226      8.22967         0.226387      0.052155     -0.003093
O	      6.06407      8.00729      8.42407        -0.047293     -0.184855     -0.166142
O	      6.24986      6.02777     10.22720        -0.033599     -0.009335     -0.144405
O	      8.13427      8.12015     10.35996        -0.120980     -0.001163      0.054926
