# total energy = -218.37483427 eV
 
CRYSTAL
PRIMVEC
0.039375 6.254062 6.175446 
6.223383 0.014721 6.200100 
4.144193 4.181460 0.014145 
PRIMCOORD
36 1
Li	      2.14033      6.26402      8.23706         0.008658     -0.076646     -0.128071
Li	      8.30449     10.40456     10.31895         0.025999     -0.045586      0.085238
Li	     10.37946      6.28521      8.27736         0.030954      0.026300     -0.069094
Li	      4.16530      4.19474      4.34895         0.018504     -0.041265      0.012492
Li	      4.17246      2.25340      6.18552         0.120289     -0.002912     -0.145616
Li	      6.09609      4.13585      6.14088         0.021914     -0.119869     -0.003754
Li	      2.11414      6.29152      4.14904        -0.013030      0.100566      0.231017
Li	      2.26389      4.27324      6.12230        -0.054474      0.122577      0.039091
Li	      4.13077      6.09912      6.17914        -0.128373      0.022727     -0.000978
Ti	      6.20281      6.31496      8.15648        -0.768259      0.105473      0.162872
V	      2.18089      4.18546      2.07915         0.261225      0.520366     -0.294526
V	      6.23080      6.16206      4.25775         0.008628     -0.160035      0.086541
Co	      6.27734      6.28719     12.29701        -0.156326      0.098936      0.616946
Co	      8.32745      8.32952     12.35762        -0.155603     -0.482538     -0.319651
Co	      4.17406      8.31724      8.21471         0.114193     -0.039483     -0.102557
Co	      6.14402      2.21581      4.16899         0.276419     -0.290438      0.449226
Co	      0.04280      4.18731      4.13357        -0.011122     -0.051182      0.230960
Ni	      4.20351      4.14208      8.18469         0.016182      0.162326      0.165328
O	      2.05034      2.17571      2.03878         0.044034      0.512403      0.011186
O	      3.99070      4.19157      2.10755        -0.280125     -0.015279     -0.410082
O	      3.97811      2.10108      4.10580        -0.106036      0.012492     -0.153379
O	      6.20049      4.26951      4.12840        -0.047346      0.023364     -0.163618
O	      6.35564      1.97178      6.13105        -0.080665      0.426029     -0.502266
O	      8.40908      4.03785      6.28205        -0.060690      0.038636      0.644316
O	      2.00566      4.10991      4.07538        -0.088220     -0.024484     -0.587521
O	      4.35977      6.43141      4.16731         0.044675     -0.042512     -0.111326
O	      4.17560      4.17122      6.24326        -0.020741     -0.070992     -0.055657
O	      6.26432      6.24029      6.22464         0.060925      0.006736      0.247934
O	      6.33796      4.24082      8.35941         0.112216      0.080851      0.021979
O	      8.24262      6.17831      8.24783         0.198944     -0.924019      0.070822
O	      1.92895      6.37433      6.17469         0.313893      0.209678      0.042855
O	      4.07559      8.48038      6.09715        -0.067146     -0.090772      0.040721
O	      4.29115      6.24075      8.20802         0.326723      0.076765      0.018171
O	      6.27562      8.26062      8.32002        -0.122405     -0.076619      0.309468
O	      6.23528      6.17584     10.20197         0.141946      0.032062     -0.247381
O	      8.46007      8.34560     10.42161         0.014239     -0.023652     -0.191684
