# total energy = -184.76226445 eV
 
CRYSTAL
PRIMVEC
4.111102 -0.000117 4.111750 
-4.129925 4.220086 0.018664 
-8.287325 -4.228741 4.176854 
PRIMCOORD
32 1
Li	     -7.25834     -3.17159      5.20459         0.000102      0.000209      0.000578
Li	     -3.12375      1.05226      5.18195        -0.000223      0.000396      0.000760
Li	     -9.39479      0.98015      3.23050        -0.021473      0.105562     -0.074967
Li	     -0.96566      1.12507      3.02327         0.021016     -0.106959      0.071047
Li	     -7.33187     -1.18782      3.25632         0.085536     -0.059380      0.043039
Li	     -3.02748      3.29284      2.99377        -0.086877      0.058930     -0.041310
Li	     -5.30974     -1.18731      5.27923        -0.051449      0.014876     -0.098695
Li	     -5.04889      3.29243      0.97230         0.050673     -0.016111      0.098680
Mn	     -5.17928      1.05223      3.12611         0.000648     -0.000842     -0.000228
Mn	     -5.20270     -3.17264      7.26048        -0.000465      0.003336      0.001943
Mn	     -3.11437     -1.05794      3.11687        -0.000412     -0.000443      0.000152
Mn	     -1.05888     -1.05811      5.17283         0.000965      0.000321     -0.000173
Ni	     -3.07652      1.07676      1.02244        -0.142539     -0.043062      0.014504
Ni	     -7.28228      1.02717      5.22916         0.142163      0.042084     -0.014173
Ni	     -7.26765     -1.06247      7.26986         0.000630      0.000071     -0.000393
Ni	     -9.32317     -1.06243      5.21395         0.001121     -0.000372     -0.000343
O	     -5.06443     -1.15310      3.01125         0.027569     -0.061721     -0.018917
O	     -1.03799      3.30960      3.09467        -0.425537     -0.086968     -0.477993
O	     -7.31354     -0.99269      5.25963        -0.348549     -0.072653     -0.758772
O	      0.88690     -1.04187      5.28276        -0.016513     -0.108548      0.021289
O	     -5.18537     -3.19413      5.31352        -0.166283     -0.201374     -0.011949
O	     -1.05615      0.88270      5.28563        -0.108529     -0.047797     -0.041905
O	     -3.25562     -3.19431      7.24334        -0.102110      0.232468      0.112321
O	     -3.22713      0.88279      3.11424         0.045978     -0.058546      0.100314
O	     -5.21010     -1.20590      7.26822         0.426723      0.087667      0.480240
O	     -1.16443     -0.96271      3.22274        -0.026108      0.060637      0.015235
O	     -3.00461     -1.07424      5.06287         0.015621      0.109327     -0.021892
O	     -3.04536      3.09652      0.99126         0.346633      0.073444      0.762137
O	     -5.19144      1.22127      5.07836         0.109336      0.047572      0.041339
O	     -1.04369      1.07803      0.91891         0.166822      0.201519      0.012215
O	     -7.13135      1.22146      3.13794        -0.046926      0.059000     -0.101856
O	      1.13758      1.07811      3.10103         0.102458     -0.232642     -0.112226
