# total energy = -222.45643296 eV
 
CRYSTAL
PRIMVEC
0.073936 6.240763 6.292767 
6.299767 0.041261 6.325151 
4.211118 4.193146 0.016256 
PRIMCOORD
36 1
Li	      2.33882      8.32964      6.27213         0.012646      0.032990     -0.006376
Li	      6.43057     10.38576      8.41414        -0.022721      0.000313     -0.013824
Li	      4.40414      8.28245      8.23713         0.052465      0.007639      0.035952
Li	      4.24350      6.20147     10.37670         0.037557      0.010018      0.005760
Li	      6.43372      8.36978     10.39207        -0.039838      0.000779      0.010287
Li	      4.22900      6.24819      2.12494        -0.039305      0.005339      0.014012
Li	      4.22203      8.40185      4.31629        -0.017279     -0.000675     -0.027933
Li	      6.20999      8.40274      6.47509         0.069523      0.005726      0.033208
Li	      4.24175      6.49466      6.42688        -0.000895      0.032474     -0.018746
Ti	      2.15465      6.36557      4.35326         0.054496      0.195366      0.087123
V	      2.16197      4.02333      2.09613        -0.067753      0.302499     -0.052835
V	      4.24945      2.18107      6.20775        -0.047333     -0.061626      0.043286
Co	      8.41460      8.47642      8.48302         0.103685     -0.080153     -0.059577
Co	      4.28493     10.38974      6.28917        -0.072325     -0.088851      0.059225
Co	      6.20374      6.29054      4.24870        -0.017531     -0.049358      0.078099
Co	      4.29322      4.20495      4.13488         0.028965     -0.022613      0.038772
Co	      6.37764      4.13976      6.28881         0.028999      0.031497     -0.090777
Co	      6.33905      6.30347      8.43644         0.107755     -0.021819     -0.018791
O	      2.03038      2.25727      2.09440        -0.015729     -0.268627     -0.018309
O	      4.08758      4.20358      1.97357         0.107028      0.010586      0.036216
O	      4.11210      2.10780      4.43248         0.026729     -0.040491     -0.090119
O	      6.27764      4.25060      4.29262        -0.059565      0.012397     -0.138186
O	      6.09091      2.02952      6.34581         0.010102     -0.143754      0.009533
O	      8.53622      4.32154      6.41001        -0.038040     -0.013504     -0.008320
O	      2.22830      4.21243      4.06008         0.005928     -0.012203      0.056789
O	      4.12431      6.24733      4.23759        -0.078695      0.054873     -0.006508
O	      4.23998      3.97557      6.37052         0.024941      0.079262      0.002273
O	      6.52661      6.22760      6.44756         0.010386      0.069723     -0.043702
O	      6.41733      4.30312      8.33730        -0.105680      0.009850      0.093759
O	      8.33740      6.18439      8.39841        -0.024781      0.096385      0.021919
O	      2.04315      6.26531      6.22377         0.018399      0.034650     -0.114609
O	      4.27917      8.51902      6.27874         0.030417      0.012052      0.036731
O	      4.43032      6.27940      8.39337        -0.016541     -0.035843     -0.017326
O	      6.40810      8.22487      8.44795        -0.080433      0.014280     -0.012422
O	      6.50451      6.27211     10.50964         0.007957     -0.000688      0.031001
O	      8.47032      8.26156     10.53125         0.006466     -0.178493      0.044414
