# total energy = -213.57491379 eV
 
CRYSTAL
PRIMVEC
0.015931 6.358382 6.144618 
6.253430 0.015407 6.145175 
4.158027 4.228402 0.020853 
PRIMCOORD
36 1
Li	      6.23587      4.26916      2.16317         0.010711      0.038380     -0.125772
Li	      4.11684      2.15831      2.15010         0.045108     -0.048168     -0.099659
Li	      8.15878      4.13122      4.16082         0.037216     -0.093170      0.008084
Li	      6.23738      2.28933      4.15883         0.005913     -0.047045     -0.026479
Li	      4.19361      2.20339      6.02773         0.021599      0.016222      0.070280
Li	      6.11174      4.28168      6.05364        -0.085571      0.065411      0.096362
Li	     10.30131      8.46815     10.29912        -0.026547      0.023711     -0.013669
Li	      4.16826      6.29872      6.11589         0.005225     -0.051199      0.091746
Li	      8.33930      8.46751      8.35540        -0.051548      0.033778     -0.118196
Ti	      6.24027      2.27896      8.16460        -0.020163      0.152705     -0.219229
V	     10.38247     10.56243     12.30136        -0.102480      0.191290      0.068609
V	      6.09264      6.45393      8.25694        -0.266448     -0.024072      0.037585
Fe	      2.14921      4.21225      6.09188         0.103250     -0.048871      0.277967
Co	      4.21090      4.21180      4.09252         0.269351     -0.586427      0.117153
Cu	      2.15023      8.44004      6.11354         0.015956      0.128191      0.060914
Ni	      8.33598      4.27302      8.18866        -0.022527      0.015945     -0.094882
Ni	      2.17209      2.05340      4.08716        -0.031588      0.012649      0.108072
Ni	      8.37551      6.41319     10.25848        -0.041915      0.003299      0.053063
O	      8.34579      8.40913     10.35112        -0.018590      0.111285     -0.099503
O	      1.98831      2.17991      1.98354        -0.064413     -0.080901      0.072906
O	      4.15652      4.35674      2.02099         0.066190      0.116945     -0.793522
O	      4.14501      2.30956      4.08123         0.165200     -0.087130     -0.262066
O	      6.14645      4.28719      4.10629        -0.082207     -0.146521     -0.070125
O	      6.31022      2.01079      6.23387        -0.015691      0.067635      0.147107
O	      8.56572      4.32958      6.12157        -0.000258      0.084459     -0.069858
O	      2.22225      4.20524      4.09511         0.010171     -0.014116     -0.058725
O	      4.21397      6.24041      4.00363         0.021844      0.310202     -0.243186
O	      4.09413      4.27585      6.00574        -0.147046      0.220606      1.252745
O	      6.26588      6.36950      6.37670         0.010032      0.006140     -0.105125
O	      6.27360      4.22160      8.16448        -0.100327     -0.172344      0.062364
O	      8.39700      6.33842      8.21841         0.133957      0.118054     -0.085960
O	      1.94105      6.20857      6.17571         0.035299     -0.088419      0.072987
O	      4.24968      8.55516      6.17912         0.042014     -0.111016     -0.025068
O	      4.35605      6.32900      8.26035         0.188990      0.037136      0.002401
O	      6.29828      8.23852      8.19376        -0.071665     -0.121319      0.064622
O	      6.32064      6.29439     10.13633        -0.039043     -0.033328     -0.153941
