# total energy = -213.22844642 eV
 
CRYSTAL
PRIMVEC
-0.008468 5.960783 6.104721 
6.682844 -0.019699 6.115298 
4.455046 3.978752 -0.010696 
PRIMCOORD
36 1
Li	      4.43446      2.00748      2.17322        -0.001313     -0.001042     -0.037036
Li	      6.51655      1.92841      4.04150        -0.008407     -0.018120      0.010494
Li	      8.82579      3.87509      8.09523        -0.001960      0.012394      0.014821
Li	      2.44039      2.06875      4.07663         0.001334      0.063094      0.045188
Li	      4.33858      3.89714      4.05720        -0.025323     -0.000529      0.077533
Li	      6.64222      3.97528     10.10825        -0.022880     -0.006364     -0.018396
Li	      6.70026      7.86999      6.15242         0.066574      0.025766     -0.038439
Li	      8.84860      7.96676      8.14089        -0.039172     -0.025684     -0.073708
Li	      6.61181      6.00284      8.10938         0.036001      0.064674     -0.023321
Ti	      6.69844      3.90306      2.23887         0.063202     -0.158447     -0.232270
V	      0.11682      5.93782      6.09858         0.031129     -0.075899     -0.053173
V	      8.90159      5.90259      9.93437         0.089081      0.259973      0.367618
Fe	      4.46854      5.92337      6.12350        -0.176018      0.034967     -0.089286
Co	      6.51042      3.92075      6.09479         0.064653      0.013470     -0.075489
Cu	      0.17085      2.05263      2.10046         0.000071     -0.045146      0.225635
Cu	      8.85459      5.95409      6.07878        -0.135371      0.050460      0.126965
Ni	      2.28290      2.03077      0.01208        -0.018520     -0.099732     -0.030354
Ni	      8.86871      9.90292     10.14536         0.011204     -0.262349     -0.110810
O	      2.28985      1.93590      2.03961         0.060303      0.003574      0.164508
O	      4.67616      4.07637      1.98313         0.075813     -0.046696      0.164963
O	      4.43588      1.90158      4.17042         0.055203      0.541785     -0.158080
O	      6.67741      3.95470      4.13182         0.312624      0.012187      0.044707
O	      6.87461      1.93811      6.09554         0.087934      0.144666     -0.065507
O	      9.23235      4.01355      6.03053         0.124599      0.253629      0.416743
O	      2.22019      4.16170      4.03625        -0.046319     -0.342282     -0.021103
O	      4.11388      5.98809      4.15246         0.034142      0.023905     -0.098956
O	      4.49870      3.92802      6.09636        -0.378949     -0.044910      0.048490
O	      6.38625      5.84484      6.09206         0.207365      0.077344     -0.013515
O	      6.70410      3.91208      7.92472         0.061463      0.064705     -0.007255
O	      8.81214      5.95575      8.18826        -0.135934     -0.011190     -0.338349
O	      2.16602      5.95694      6.12102         0.017036     -0.122941      0.092754
O	      4.43343      8.08439      6.12149         0.075894     -0.279823     -0.006840
O	      4.23480      5.95501      8.11049        -0.157580      0.020343     -0.124626
O	      6.62463      8.04181      8.14398        -0.040838      0.104600      0.108364
O	      6.97690      5.96420     10.25970        -0.292284     -0.008947     -0.193157
O	      8.97676      7.85290     10.17847         0.005245     -0.221435     -0.099112
