# total energy = -212.73424543 eV
 
CRYSTAL
PRIMVEC
-0.007558 6.518592 6.195751 
6.005881 -0.027431 6.213098 
4.009261 4.366251 -0.022595 
PRIMCOORD
36 1
Li	      1.96249      0.04587      2.05995        -0.025671      0.013820      0.011357
Li	      6.02809      8.67206     10.34916        -0.020620      0.075146     -0.029201
Li	      4.06319      6.48634      2.11036         0.034480      0.002781     -0.071343
Li	      1.94066      2.27113      4.07762         0.054990     -0.050473      0.016537
Li	      4.02892      4.56518      4.03772         0.099535      0.031423      0.077315
Li	      5.97791      4.36780      6.14365        -0.025302     -0.000483      0.003345
Li	      2.00212      6.35851      4.21143        -0.006720      0.042602      0.003421
Li	      1.98729      4.40514      6.08250        -0.002673     -0.011820      0.070035
Li	      6.04660      6.48847      8.31648         0.023811      0.021868     -0.031370
Ti	      7.92234      4.31846      4.06669        -0.632033      0.057331     -0.223515
V	      3.99047      2.18257      6.11246         0.060347      0.184672      0.181065
V	      7.99960      8.58772      8.19103        -0.115418     -0.034544     -0.223467
Fe	      3.97951      2.26066      2.08740         0.132751     -0.171789      0.016870
Co	      3.99546      6.50904      6.19502        -0.105942     -0.231895      0.238741
Cu	      4.04802     10.83854      6.18531         0.037454     -0.080673      0.025111
Cu	      7.92801      4.27748      8.28920        -0.048026      0.029880     -0.147138
Cu	      0.08265      4.29587      4.14383         0.003666      0.222046     -0.064220
Ni	      1.91299      2.04292      0.03023         0.000331      0.081793     -0.057481
O	      2.03820      2.09311      2.02829        -0.194042     -0.023874      0.212525
O	      3.95425      4.20469      1.98331         0.067939      0.270119      0.051558
O	      4.03751      1.97648      4.12037         0.056705     -0.139217     -0.064019
O	      6.10227      4.30231      4.14275         0.473487      0.030048     -0.060327
O	      5.85968      2.24208      6.20329         0.000003     -0.028399     -0.054446
O	      8.02802      4.48833      6.17655        -0.108538     -0.084991     -0.127546
O	      2.00287      4.37082      3.98955        -0.031336     -0.030972      0.138309
O	      4.01520      6.64481      4.34276         0.037440     -0.167050     -0.377963
O	      3.97719      4.36287      6.31625        -0.036363     -0.193503     -0.036353
O	      6.20380      6.54589      6.19656        -0.023966      0.002501     -0.040629
O	      5.83135      4.42483      8.19722         0.118329     -0.024974      0.121235
O	      8.03965      6.79224      8.18540         0.067744      0.015709      0.082788
O	      1.97595      6.54556      6.19863         0.058281     -0.210218     -0.029767
O	      3.98632      8.43904      6.32855         0.095871      0.452558      0.020901
O	      4.03671      6.46163      8.27305         0.018116      0.007127      0.423555
O	      6.15983      8.70863      8.29372        -0.127338     -0.001910      0.029066
O	      5.93982      6.38648     10.45069         0.057566     -0.094975     -0.117523
O	      8.04275      8.82299     10.22496         0.005145      0.040338      0.032573
