# total energy = -213.08616546 eV
 
CRYSTAL
PRIMVEC
0.000100 6.313287 6.233275 
6.118612 0.015854 6.218028 
4.100929 4.220243 -0.011098 
PRIMCOORD
36 1
Li	      6.05237      0.12142      6.19734        -0.044027      0.042919     -0.019446
Li	      8.12109      2.13879      6.19736        -0.024960      0.057879     -0.024741
Li	      4.10762      0.05552      4.16011         0.059665     -0.019429     -0.000193
Li	      8.18230      4.31168      8.32215        -0.003642      0.030743     -0.027015
Li	      4.07639      4.21439      4.16216        -0.042444      0.037229     -0.012204
Li	      8.19141      6.32305      6.24558         0.035372     -0.040338     -0.022461
Li	      8.15771      6.30709     10.28281        -0.035644      0.013442     -0.063952
Li	      8.15827      8.32125      8.26519        -0.021507     -0.024400      0.015905
Li	      6.15979      6.39344      8.29470         0.029012     -0.016005      0.039542
Ti	     10.09227      8.51834     10.38959        -0.304506      0.312575     -0.034309
V	      2.07043      6.36885      8.25249        -0.113354      0.129249     -0.134815
V	      6.19387      4.17539      6.24088         0.255131     -0.255939      0.104775
Fe	      4.10855      2.16032      2.12446        -0.130456      0.074297     -0.158756
Co	     10.10233      6.33204      8.28864        -0.177556      0.046160     -0.123943
Cu	      6.22686      8.36073     10.38512         0.086887     -0.002364      0.030796
Cu	      6.18428      6.31509      4.20544         0.075458     -0.056232     -0.180850
Cu	      2.11694      4.18985      6.17027         0.089166      0.135026      0.035025
Cu	      4.09858      6.27705      6.21053        -0.117190      0.025934     -0.018287
O	      6.15944      6.16488     10.33994        -0.038166     -0.453170      0.051536
O	      2.01054      2.04431      2.14157         0.113015      0.017548     -0.003473
O	      4.16047      4.28739      2.04435         0.076484     -0.204804      0.026921
O	      4.30910      2.15212      4.04762        -0.208468      0.065753      0.268260
O	      6.15348      4.27087      4.11912        -0.026069     -0.017750      0.162077
O	      6.11055      2.19466      6.37785        -0.033318      0.065323     -0.153184
O	      7.97551      4.22814      6.22873        -0.166238     -0.008431     -0.034414
O	      1.94736      4.07167      4.23717        -0.016987      0.078065     -0.148833
O	      4.01493      6.40525      3.92207         0.123405     -0.054710      0.221170
O	      4.18706      4.29243      6.19884         0.123705      0.001240     -0.026166
O	      6.06589      6.17184      6.20464         0.007523     -0.073260      0.043169
O	      6.08585      4.05615      8.30105        -0.018243      0.036658     -0.054468
O	      8.29771      6.30019      8.25850         0.056853      0.014310     -0.026007
O	      2.07318      6.40530      6.41963        -0.048962      0.065414      0.111701
O	      4.10616      8.34308      6.16041        -0.069343      0.030154      0.050401
O	      3.99072      6.48894      8.39424         0.056496     -0.019207      0.043233
O	      6.11564      8.55295      8.15555         0.053011     -0.070983      0.064295
O	      8.19511      8.41888     10.39292         0.399893      0.037102     -0.001292
