# total energy = -214.12094198 eV
 
CRYSTAL
PRIMVEC
-0.017413 6.348125 6.266967 
6.135998 0.002996 6.246657 
4.096986 4.224583 -0.004369 
PRIMCOORD
36 1
Li	      0.01331      6.34995      6.24355         0.051544     -0.086016      0.019693
Li	      4.11482      2.14112      2.08619         0.022506      0.028118     -0.045234
Li	      4.08429      4.25694      4.22786        -0.067598      0.024798      0.000983
Li	      4.05654      2.22771      6.20648        -0.015148      0.088201      0.011775
Li	      6.11798      4.20769      6.26243        -0.013838     -0.029237      0.029263
Li	      4.08556      8.41517      4.14874         0.044961     -0.004848      0.021818
Li	      2.03165      6.37559      4.24756        -0.015418     -0.047702      0.009153
Li	      4.03693      4.23363      8.28415         0.013629      0.018612     -0.034619
Li	      6.11876      6.40930      8.28382        -0.017605      0.008058     -0.012194
Ti	      4.19559      6.35690     10.28246         0.286254      0.033178     -0.301913
V	      2.07532      8.45633      6.28397         0.322582      0.078774      0.034283
V	      8.18087      4.42091      8.36512         0.065537     -0.154990      0.036772
Fe	      6.08341      6.30264      4.21822         0.090581      0.118329     -0.151464
Co	      6.17426      8.44915      6.39859        -0.636260     -0.153564     -0.262563
Ni	      6.07272      4.18621      2.09774        -0.040998      0.013179     -0.083415
Ni	      6.11627      2.12190      4.16151         0.013779      0.000036     -0.044073
Ni	     -0.00280      2.12618      2.09850        -0.075290      0.026510     -0.027608
Ni	      4.06800      6.30445      6.24297         0.002152     -0.161237      0.141047
O	      2.05634      2.12012      2.05385         0.086968      0.028747      0.084298
O	      3.93490      4.25593      2.07160        -0.097011     -0.056062      0.031396
O	      4.04416      1.95674      4.21934        -0.052613     -0.177259     -0.042386
O	      6.19962      4.25319      4.16815         0.009951      0.012102      0.162695
O	      6.34320      2.10275      6.25339        -0.016066      0.041048      0.015694
O	      8.23581      4.08246      6.35625        -0.040408      0.048828     -0.029646
O	      2.04812      4.14616      3.96369         0.004685      0.023238      0.225209
O	      4.14384      6.34074      4.14118        -0.005765      0.006502     -0.076541
O	      3.91617      4.25648      6.25385        -0.140884     -0.132502      0.246196
O	      6.08267      6.44866      6.18965         0.394280      0.899206      0.270096
O	      6.36523      4.18108      8.27587        -0.035727      0.109234      0.016145
O	      8.18140      6.19023      8.29740        -0.134132      0.044365      0.009373
O	      2.03031      6.37464      6.31412        -0.057719     -0.610840     -0.070229
O	      4.00057      8.39594      6.26347         0.116644      0.131387      0.106452
O	      4.06777      6.29436      8.42976         0.099004      0.022829      0.388013
O	      6.07563      8.52329      8.33140         0.072949     -0.207113     -0.565873
O	      6.04731      6.39469     10.41391        -0.269278     -0.032124     -0.025573
O	      8.16323      8.58517     10.53873         0.033751      0.048215     -0.087022
