# total energy = -216.28063001 eV
 
CRYSTAL
PRIMVEC
0.032413 6.090234 6.413007 
6.176938 -0.016519 6.462775 
4.134707 4.109997 -0.028460 
PRIMCOORD
36 1
Li	      8.21117      8.20889     12.65823        -0.048688     -0.001277     -0.013700
Li	      8.30147     10.11780     10.67172        -0.071454      0.098306      0.036410
Li	      6.19153      2.15814      8.67390        -0.019547     -0.052933      0.000883
Li	      8.12945      4.05629      8.60128         0.076667      0.004513     -0.025870
Li	      4.11166      4.11187      4.28280         0.037175     -0.044365      0.043275
Li	      6.26258      4.01680      6.74436        -0.007535     -0.022798      0.032209
Li	      8.29599      6.17607     10.66566         0.024167     -0.015822     -0.044013
Li	      4.28865      4.08283      8.72342        -0.086391     -0.066959     -0.024565
Li	      6.13299      5.98052      8.69616         0.049596      0.121978      0.000656
Ti	      6.14029      6.09131     12.75733        -0.128675      0.117723      0.067801
V	      2.11462      1.99875      4.29211         0.147624     -0.080750     -0.092600
V	      8.27342      6.17855      6.68538         0.037937      0.042117      0.012339
Fe	      2.11057      6.07063      8.52630        -0.124119     -0.094852      0.118494
Co	      4.16817      8.13226      8.55459        -0.210059      0.227251     -0.121381
Co	      2.06720      4.03228      6.39114        -0.042110      0.069294      0.099180
Cu	      6.25456      8.16667     10.68403        -0.033344      0.130571      0.061528
Ni	      6.13773      4.00919     10.60451        -0.118365      0.076524      0.312912
Ni	      4.14661      6.06123      6.36575         0.004622      0.009265      0.054330
O	      2.18891      2.02074      2.30178         0.035686      0.055376     -0.017015
O	      4.19098      3.95725      1.97501         0.073707     -0.059660     -0.020186
O	      4.16236      2.04761      4.31769        -0.230078     -0.063487      0.225048
O	      6.21314      4.19225      4.14013         0.016773      0.029091     -0.049308
O	      6.10959      1.95086      6.55047         0.071249     -0.159727      0.228602
O	      8.34557      4.17773      6.44404         0.181586     -0.096733     -0.039638
O	      2.08358      3.91284      4.42256         0.021287      0.006011     -0.096146
O	      4.27642      6.09475      4.32937        -0.100379     -0.018034     -0.196391
O	      3.99426      3.99219      6.44103        -0.042322     -0.070740      0.059927
O	      6.27610      6.18608      6.29266         0.062631     -0.010380      0.010139
O	      6.20835      4.07012      8.64709        -0.049281      0.044148     -0.004647
O	      8.22558      6.12662      8.42197        -0.000334     -0.019289     -0.157852
O	      2.05521      5.99357      6.46255        -0.206233      0.023071     -0.111904
O	      4.22266      8.19343      6.30215        -0.004558      0.150998     -0.050664
O	      4.09925      6.24290      8.42945         0.161744     -0.076677      0.136644
O	      6.08549      8.16416      8.31033         0.164822     -0.041757     -0.136746
O	      6.23317      6.11612     10.87227         0.010940     -0.130299     -0.083465
O	      8.17505      8.16367     10.71107         0.345260     -0.079698     -0.214285
