# total energy = -216.28896327 eV
 
CRYSTAL
PRIMVEC
0.012306 6.185141 6.173814 
6.426854 0.039988 6.146002 
4.317342 4.136359 -0.004664 
PRIMCOORD
36 1
Li	      4.35847     10.25883      6.20490        -0.040534      0.059370      0.007504
Li	      2.27276      8.18587      6.17660         0.135959     -0.024840     -0.014470
Li	      4.31680      2.15716      2.00131        -0.006244     -0.039580      0.031954
Li	      6.49329      8.28641     10.15022         0.025167      0.054802     -0.003613
Li	      4.31484      6.18944      2.13850        -0.035193     -0.026544     -0.010248
Li	      4.31124      8.20977      4.12598        -0.035400     -0.022800      0.022246
Li	      8.56997      6.32580     10.27065        -0.044705      0.063690      0.049638
Li	      8.57840      8.21450      8.22341        -0.011660      0.039360     -0.018497
Li	      6.51445      6.23485      8.25227        -0.042052     -0.025189      0.012157
Ti	      2.07866      4.05760      2.14918        -0.127643     -0.025157      0.169267
V	      4.46234      6.08719     10.08569        -0.202627      0.091723     -0.270779
V	      4.43326      2.06846      6.19774        -0.126255     -0.067776     -0.035024
Fe	      6.32239      8.33244      6.24365         0.060435      0.010458     -0.245958
Co	      2.17029      2.06789      4.09134         0.014618     -0.089050      0.070541
Co	      4.27901      6.24437      6.14632         0.045123     -0.052622      0.056612
Cu	      6.36109      4.17342      2.00385         0.063401      0.054894     -0.026631
Cu	      4.29971      4.15302      4.05769        -0.010876     -0.065855     -0.011105
Ni	      6.45164      4.17876      6.15465        -0.085836      0.004713      0.011513
O	      2.12974      2.05811      2.13117        -0.028853      0.194897      0.053451
O	      4.06311      4.13344      2.13091        -0.211733      0.033187     -0.167633
O	      4.15469      2.00503      4.17269        -0.060599      0.080719      0.020128
O	      6.69865      4.29446      4.08433         0.182227      0.110154     -0.008400
O	      6.20058      2.14069      6.09708        -0.006889     -0.145035      0.001111
O	      8.55538      4.23105      6.17091         0.123937     -0.014143      0.006973
O	      2.03310      4.04523      4.09172        -0.129375     -0.040253     -0.124348
O	      4.55911      6.10756      4.14895         0.064417      0.166004      0.355996
O	      4.29352      4.08757      6.06893        -0.056681      0.441599      0.094185
O	      6.60535      6.25959      6.03073         0.158147      0.085459     -0.051245
O	      6.59034      4.14821      8.15699         0.184611     -0.025326      0.164938
O	      8.54290      6.13672      8.14107        -0.004102     -0.030662      0.003707
O	      2.15834      6.16888      6.17002         0.026528     -0.022376     -0.065962
O	      4.39170      8.22621      6.18498        -0.110868     -0.560318     -0.113648
O	      4.42648      6.19789      8.32817         0.056208      0.058994     -0.076549
O	      6.48389      8.39176      8.16583         0.005328     -0.109527      0.102034
O	      6.19229      6.27855     10.30956         0.205378      0.032386      0.033747
O	      8.58388      8.47976     10.28956         0.026637     -0.195359     -0.023594
