# total energy = -215.35885544 eV
 
CRYSTAL
PRIMVEC
0.019214 5.933786 6.351637 
6.316866 0.001999 6.369061 
4.231525 3.988287 -0.018970 
PRIMCOORD
36 1
Li	      2.11819      1.98680      0.01629         0.011419     -0.029525     -0.001023
Li	      4.23804      1.97695      2.15561         0.011440     -0.012569     -0.059862
Li	      6.19995      2.01531      4.22699         0.018706     -0.065944     -0.002188
Li	      0.06113      1.98477      2.07098        -0.016530      0.020075      0.010269
Li	      2.20690      2.01400      4.18369        -0.029476      0.061355     -0.055230
Li	      0.09677      3.92305      4.22018         0.036622      0.010790     -0.040936
Li	      6.38542      7.88752      6.33242        -0.001772      0.015414     -0.005860
Li	      4.29490      6.01447      6.41488        -0.007853      0.070825      0.032920
Li	      4.23186      3.98180      8.42137         0.005584     -0.035103      0.083091
Ti	      4.20979      9.81741      6.30729        -0.016017     -0.493351     -0.034781
V	      6.37710      3.98011      2.19027         0.028890     -0.026883     -0.285565
V	      2.22502      6.07134      4.27032        -0.082852      0.141491     -0.102493
Fe	      6.23530      3.96535      6.40741         0.327557     -0.071294      0.067296
Co	      2.10997      3.88696      2.15752        -0.036709      0.060357      0.020244
Co	      6.33072      5.98298      8.53634         0.066755     -0.113491      0.022964
Cu	      4.22958      5.94367     10.55727         0.013867     -0.233462     -0.071398
Cu	      4.16915      3.90225      4.24352        -0.158657      0.067377     -0.046894
Cu	      4.19904      2.04262      6.33420         0.011065     -0.121114      0.138085
O	      2.11352      1.85785      2.07344         0.013488     -0.156572      0.045127
O	      4.32968      3.99417      1.87553         0.026861     -0.009862     -0.267173
O	      4.18124      1.95230      4.17250         0.009897      0.263043     -0.107295
O	      6.15745      4.01526      4.13993        -0.031294     -0.041841      0.168792
O	      6.28141      1.99640      6.34483        -0.034154      0.041591     -0.043588
O	      8.47730      4.01599      6.28169         0.030783     -0.037871      0.120569
O	      2.18587      4.01977      4.20180         0.106587     -0.147643     -0.001871
O	      4.01061      5.92024      4.18599         0.106316     -0.084934     -0.016131
O	      4.31359      3.96757      6.45311        -0.118772      0.164450      0.082258
O	      6.40624      5.93897      6.60736        -0.052046      0.107686      0.115573
O	      6.38539      4.06172      8.44024         0.017900      0.083510      0.018097
O	      8.26548      5.87581      8.69339        -0.079480      0.026086      0.086979
O	      2.02381      5.94085      6.21206        -0.138683     -0.009620      0.065850
O	      4.21767      8.00700      6.27062        -0.000749      0.484889      0.013570
O	      4.25175      5.94331      8.56771        -0.010577      0.047395     -0.016077
O	      6.37928      8.04465      8.46629        -0.022786      0.087781      0.050824
O	      6.52192      5.93811     10.58155         0.034678      0.012222     -0.009653
O	      8.47877      7.84375     10.58612        -0.040010     -0.075260      0.025511
