# total energy = -215.13781910 eV
 
CRYSTAL
PRIMVEC
0.031271 6.206123 6.164752 
6.300869 0.036486 6.159705 
4.221805 4.155478 0.002839 
PRIMCOORD
36 1
Li	      8.43769      8.37260     12.25630        -0.022702      0.065496      0.058861
Li	      6.29140      2.13795      4.19982        -0.130856      0.056289      0.026303
Li	      2.07683      4.07427      2.04330        -0.035500     -0.054469     -0.053812
Li	      2.16030      2.13238      4.17060        -0.081055     -0.056793      0.000269
Li	      4.31839      2.01937      6.04446        -0.007259      0.025305     -0.064151
Li	      6.41409      4.03553      6.13811         0.038713     -0.034823     -0.016089
Li	      4.24555      8.25216      4.19845         0.012870     -0.058190     -0.000556
Li	      6.25176      8.32567      6.10668         0.002612     -0.105135      0.006678
Li	      4.20282      6.38596      6.04167         0.092481      0.053703     -0.080282
Ti	      2.05914      0.10595      1.98858         0.108423      0.518889      0.389584
V	      4.23623      4.13741      8.15680         0.079942     -0.072719      0.146316
V	      6.35853      6.20387      8.12254        -0.091448     -0.058758      0.076774
Fe	     10.44969     10.39564     12.22360        -0.109388     -0.014529     -0.079313
Co	      4.18264      4.13917      4.20291         0.032777      0.275962     -0.120211
Co	      2.14292      6.19942      4.16833        -0.198334      0.155878      0.088990
Ni	      4.24670      8.31761      8.19475        -0.060073     -0.054730      0.089232
Ni	      8.34135      4.20953      4.18960         0.028228      0.101320     -0.008559
Ni	      6.31833      2.14074      8.18260         0.037485      0.059212      0.246592
O	      2.12009      1.97591      2.07073         0.008618     -0.504853     -0.143899
O	      4.35428      4.15865      2.00572        -0.043878      0.044702      0.629691
O	      4.17006      2.18720      4.05462         0.041696      0.187534      0.073738
O	      6.22495      4.17476      3.99065        -0.190581     -0.106372     -0.262428
O	      6.30853      2.00751      6.20626         0.027641     -0.051068     -0.163992
O	      8.46289      4.18780      6.12662        -0.027916     -0.024393      0.264111
O	      2.28615      4.26799      4.13552         0.268179     -0.358707      0.001213
O	      4.07465      6.09598      4.07971         1.348559     -0.263627      0.054041
O	      4.25185      4.12591      6.36590        -0.033257      0.063146     -0.815415
O	      6.32186      6.24277      6.38380         0.024176      0.016643      0.133084
O	      6.24420      4.23019      8.25246        -0.096721      0.113442      0.044040
O	      8.36339      6.28623      8.37597        -0.046022      0.093526     -0.156551
O	      2.13696      6.22500      6.18424        -0.057402     -0.034007      0.261115
O	      4.26480      8.37961      6.19199         0.008647      0.052929     -0.132245
O	      4.24873      6.18098      8.31274        -0.141226     -0.097297     -0.244860
O	      6.42107      8.29250      8.22052         0.130861      0.057530     -0.018703
O	      6.42049      6.23968     10.18940        -0.877975     -0.033041     -0.161552
O	      8.45084      8.24393     10.11399        -0.040314      0.042003     -0.068016
