# total energy = -184.74848993 eV
 
CRYSTAL
PRIMVEC
4.134380 0.000264 4.134793 
-0.003275 8.317619 0.003794 
-4.178872 0.003517 4.179258 
PRIMCOORD
32 1
Li	     -3.12521      0.90538      5.19320         0.001572      0.040550      0.000495
Li	      0.94553      5.27359      5.25919         0.008016     -0.014216     -0.010547
Li	     -1.06901      0.89767      3.13707         0.006200      0.035660     -0.003261
Li	     -1.01787      5.28930      7.22215        -0.014997      0.001106      0.014554
Li	     -3.12473      3.24481      3.14737        -0.009888     -0.045264     -0.006758
Li	      0.95604      7.21495      3.05309         0.011244      0.021552      0.007516
Li	     -1.07721      3.24513      5.19436         0.006631     -0.046557      0.009705
Li	     -0.98506      7.21274      1.11273        -0.006528      0.024550     -0.011134
Mn	      0.99283      1.02029      5.21061        -0.005259      0.028174      0.002867
Mn	     -1.06544      1.00165      7.26882        -0.025217      0.012020      0.025332
Mn	      1.00043      3.13816      3.10807         0.019723     -0.067231      0.019010
Mn	     -1.03916      3.13784      1.06861        -0.018666     -0.065811     -0.019600
Ni	     -3.12024      5.24195      5.18978        -0.052104     -0.052089      0.051312
Ni	     -1.08008      5.23388      3.14954         0.049584     -0.052873     -0.049824
Ni	     -3.10545      7.24777      3.15545        -0.061770      0.067024     -0.056145
Ni	     -1.08598      7.24762      5.17491         0.055935      0.069972      0.061055
O	     -0.92841      3.09152      2.99734         0.021075     -0.057843     -0.021944
O	     -1.04806      7.45196      7.25105        -0.064772     -0.030031      0.070122
O	      0.89497      3.03959      1.17399        -0.020049     -0.052438      0.021140
O	      0.98947      7.46904      5.21379         0.082101      0.026704     -0.076796
O	     -0.92034      1.11825      5.24797         0.024100      0.058633     -0.079311
O	     -1.02072      5.00506      1.05828        -0.076719     -0.033189     -0.074657
O	      0.95480      1.11689      7.12423         0.079527      0.066226     -0.024865
O	      1.01071      5.00514      3.08935         0.075454     -0.035038      0.078627
O	      2.98433      3.00059      3.21949        -0.023532      0.021028      0.022654
O	     -1.08317      7.25400      3.15319         0.107052      0.116123     -0.112922
O	      1.11869      3.04096      5.08477         0.017579      0.001206     -0.016929
O	     -3.11542      7.28526      5.18528        -0.108913      0.097872      0.105889
O	      2.96182      1.14834      5.15131        -0.005747      0.041904      0.078522
O	     -1.09432      5.19003      5.18135         0.119317     -0.106790      0.109920
O	      1.05314      1.14841      3.24145        -0.080973      0.039126      0.005978
O	     -3.11185      5.19033      3.16396        -0.109976     -0.110062     -0.120007
