# total energy = -219.39899231 eV
 
CRYSTAL
PRIMVEC
0.030871 6.090400 6.505663 
6.186605 0.052508 6.484749 
4.120398 4.042425 0.039068 
PRIMCOORD
36 1
Li	      2.12371      1.96603      0.18902        -0.070167      0.067246      0.013918
Li	      2.11683      6.18853      8.55591        -0.020434     -0.053635     -0.025517
Li	      4.04923      8.11723      8.52885        -0.011926      0.048568      0.046492
Li	      6.19656      8.13988     10.80742         0.017775      0.020805     -0.101225
Li	      2.05337      3.95179      2.18557        -0.010746      0.033074      0.035709
Li	      2.03971      2.09199      4.15875         0.014627     -0.014164     -0.063335
Li	      4.24020      8.04882      4.49355         0.029532     -0.012498      0.041184
Li	      4.06696      6.20564      6.55789         0.062637     -0.094258     -0.020970
Li	      4.12677      4.12089      8.60991        -0.005399      0.012426      0.000861
Ti	      4.14948      4.08157      4.28654        -0.022314      0.037738     -0.260016
V	      8.25716     10.04664     10.82677         0.011897      0.041686      0.030774
V	      6.18573      6.12873      8.68095         0.032971     -0.089399      0.045238
Fe	      8.27869      6.10409      6.56468        -0.003504      0.001280      0.086278
Co	      0.03660      2.04687      2.20963         0.014068      0.074603     -0.020095
Co	      6.21833      4.05955      6.52142        -0.013758      0.032009      0.004843
Co	      2.07289      4.08072      6.48773         0.045451     -0.074687     -0.049345
Cu	      4.19632     10.08167      6.60090         0.000450      0.075867      0.011455
Ni	      8.25359      6.19359     10.89018        -0.038613      0.060152     -0.128002
O	      1.90919      2.04694      2.17000         0.019455     -0.002322      0.047655
O	      4.10009      4.13163      2.42004        -0.007094     -0.090283      0.315282
O	      4.14679      2.04134      4.44304         0.015263      0.036421     -0.008693
O	      6.18153      4.05385      4.44394        -0.041144      0.017066      0.060421
O	      6.15344      2.01266      6.72836         0.002735      0.039854      0.187824
O	      8.33036      4.11910      6.35153        -0.143614     -0.037322     -0.018177
O	      2.18996      4.09492      4.53318         0.042216     -0.151786      0.046587
O	      4.11147      6.04625      4.22454         0.148919      0.009485     -0.076368
O	      4.08123      4.07515      6.38917         0.016390     -0.008299     -0.039828
O	      6.24715      6.14358      6.63035        -0.025639      0.095761      0.074482
O	      6.18900      4.16064      8.59097         0.016815      0.064253     -0.120234
O	      8.25338      6.10938      8.65198         0.067513      0.017906      0.022640
O	      2.04630      5.99851      6.45109         0.122872     -0.040350      0.094946
O	      4.28311      8.15717      6.51745         0.038053     -0.182889      0.005371
O	      4.21392      6.13012      8.83949        -0.133213      0.018691     -0.040741
O	      6.21913      7.97543      8.49918        -0.024456      0.117407     -0.044276
O	      6.15296      6.16406     10.61296        -0.130160     -0.031297     -0.051976
O	      8.23896      8.27557     10.89998        -0.017454     -0.039107     -0.103161
