# total energy = -218.62819904 eV
 
CRYSTAL
PRIMVEC
0.007112 6.217183 6.219312 
6.318008 0.012769 6.213400 
4.222972 4.151766 -0.002502 
PRIMCOORD
36 1
Li	      4.24075      4.16219      0.03004         0.021559      0.054639      0.004682
Li	      8.39678      2.11954      6.22513        -0.044142      0.031165     -0.013832
Li	      2.10042      6.24376      8.20621         0.025050     -0.009599     -0.046337
Li	      6.27617      6.25311      4.23851        -0.020192      0.018289     -0.029529
Li	      4.18132      4.20539      4.22066        -0.050865      0.029641      0.022882
Li	      8.29909      6.25857      6.27410         0.012031     -0.026578      0.038563
Li	      2.21592      4.05896      6.19187         0.064949     -0.050622     -0.048331
Li	      4.35147      6.13527      6.19620         0.003951     -0.002023     -0.019162
Li	      6.34359      6.21326      8.16759         0.019993      0.000714      0.016857
Ti	      4.12486      8.28804      8.10283        -0.189546     -0.058121     -0.173743
V	      6.18745      2.18645      4.15403        -0.072039      0.037378     -0.009637
V	      2.12893      6.20136      4.28451         0.075540     -0.000142     -0.254419
Fe	      4.27055      8.26628      4.16952        -0.071594      0.017716      0.059802
Co	      8.47326      4.15429      4.19990        -0.024866      0.027499     -0.031360
Co	      4.25735      6.15250      2.04128        -0.011690      0.013768      0.115791
Co	      4.19700      4.19446      8.19268         0.098347     -0.024313      0.101495
Ni	      8.43563      4.18343      8.24151         0.051668      0.026952      0.004864
Ni	      6.30856      4.21977      6.22315         0.036592     -0.183322      0.032511
O	      2.21531      2.08392      2.07711         0.187381     -0.138296     -0.071467
O	      4.20467      4.05415      2.03397         0.111684     -0.104241     -0.042108
O	      4.38830      2.09390      4.07945         0.054854     -0.008205     -0.034494
O	      6.34648      3.97423      4.11768         0.001885     -0.021270     -0.073684
O	      6.33688      2.15297      6.03091        -0.016371     -0.043063     -0.006975
O	      8.25284      4.19345      6.18753         0.063285      0.018431     -0.121565
O	      2.03192      4.21720      4.14572         0.068284     -0.007188      0.110255
O	      4.13307      6.28968      4.14074        -0.001106     -0.040343      0.043097
O	      4.37391      4.14862      6.25265        -0.163243      0.043575     -0.091303
O	      6.33972      6.10224      6.18062        -0.001755      0.158958      0.025110
O	      6.35847      4.11215      8.38238        -0.092462     -0.024882     -0.011897
O	      8.47992      6.23803      8.46603         0.001420      0.049126      0.025474
O	      2.12621      6.21979      6.04139        -0.007510     -0.004448      0.268550
O	      4.23121      8.29978      6.23582        -0.011819      0.007286      0.233436
O	      4.21001      6.35209      8.36508        -0.069808      0.138927      0.031642
O	      6.26791      8.28740      8.47339        -0.050693      0.005162     -0.079655
O	      6.39705      6.29126     10.40908        -0.063054      0.012127      0.019238
O	      8.39197      8.26112     10.32802         0.064280      0.055306      0.005246
