# total energy = -220.56938006 eV
 
CRYSTAL
PRIMVEC
0.065177 6.328453 6.363974 
6.241312 0.061082 6.367540 
4.176011 4.236545 0.025549 
PRIMCOORD
36 1
Li	      6.25491      4.28015      2.25474        -0.033995     -0.016836      0.013822
Li	      8.21599      4.19921      4.27585        -0.072766      0.013820      0.046724
Li	      6.28927      2.23831      8.49905         0.020542      0.086468      0.045879
Li	      6.23267      6.30666      4.29942        -0.020815      0.059140      0.026934
Li	      6.23498      4.32097      6.33334        -0.006910      0.037786      0.057847
Li	      6.28904      4.28586     10.54265         0.106686     -0.021568     -0.073666
Li	      6.31984      8.42462      6.36058         0.020561     -0.044094     -0.079414
Li	      4.32272      4.27733      8.48468         0.051173      0.027284     -0.033239
Li	      6.27679      6.32157      8.45997         0.042644     -0.096111     -0.043503
Ti	      0.10114      6.32958      6.39523        -0.200921      0.066069      0.218278
V	      4.30231      8.31373      8.62235        -0.047354      0.445910     -0.019163
V	      8.44465      6.42945     10.55236         0.423214     -0.444852     -0.150498
Fe	      8.24381      6.49234      6.49636         0.042701     -0.027407      0.037544
Co	      8.29233      2.22736      6.36244         0.035629      0.077643      0.098084
Co	      8.17199      4.28061      8.51486         1.363906     -0.267466      0.149650
Co	      4.24029      4.23770      4.26479        -0.398563      0.081184     -0.037130
Co	      4.29134      6.29570      6.38736         0.025620      0.084606     -0.117606
Cu	      6.39969      8.54824     10.62062         0.019626      0.098684     -0.066335
O	      2.25607      2.19052      2.08363        -0.164443      0.178787     -0.099590
O	      4.13434      4.12675      2.04477        -0.562309     -0.101919     -0.063741
O	      4.12584      2.08962      4.10481        -0.011264      0.026590     -0.058053
O	      6.15501      4.15284      4.24200        -0.084098     -0.119943      0.007185
O	      6.16488      2.01310      6.49492         0.056384     -0.275433     -0.049269
O	      8.45407      4.36081      6.36686         0.184316      0.001110     -0.024889
O	      2.19718      4.35980      4.15881         0.250011      0.333232     -0.035359
O	      4.08176      6.37664      4.28774        -0.232349     -0.153456      0.055411
O	      4.18757      4.20744      6.38317         0.064659      0.002608     -0.069546
O	      6.35220      6.37704      6.36005        -0.140315     -0.009470     -0.022912
O	      6.39305      4.26365      8.50099         0.121221      0.037828      0.028213
O	      8.35219      6.37273      8.56600        -0.275361     -0.089500      0.116953
O	      2.09382      6.35487      6.27100        -0.158326      0.103959     -0.038748
O	      4.22034      8.54683      6.48962        -0.107826      0.101569      0.107795
O	      4.20625      6.53603      8.47642        -0.034316     -0.262551     -0.001006
O	      6.05143      8.50343      8.44098        -0.121956     -0.024744     -0.026263
O	      6.49009      6.42791     10.74431        -0.082362      0.103215      0.110985
O	      8.41579      8.44050     10.63230        -0.072642     -0.012140     -0.011374
