# total energy = -221.25617825 eV
 
CRYSTAL
PRIMVEC
0.009157 6.200144 6.273668 
6.180652 0.010867 6.271598 
4.132249 4.143620 -0.004168 
PRIMCOORD
36 1
Li	      4.12445     10.30106      6.26764        -0.050090     -0.003175      0.017132
Li	      2.11087      8.26822      6.27998         0.028864      0.001494     -0.002893
Li	      8.21613      4.16853      8.37448        -0.011294     -0.009170     -0.033337
Li	      2.04367      2.15693      4.22109        -0.089337     -0.024085     -0.044217
Li	      4.00542      4.15577      4.25404        -0.019679      0.063939      0.004542
Li	      2.12959      6.11170      4.27205         0.059057      0.024870      0.032739
Li	      2.10574      4.19863      6.19052         0.041534     -0.050947     -0.030789
Li	      4.15140      4.09797      8.30616        -0.012703      0.063982     -0.013638
Li	      6.20351      6.19793      8.31082        -0.036778     -0.037647      0.021492
Ti	      6.32526      8.22045     10.46444         0.331519      0.019962     -0.302883
V	      4.07270      2.13460      2.09351         0.047210     -0.140217     -0.021455
V	     10.27787      6.26175      8.38099         0.163280      0.016477      0.167648
Fe	      0.13185      4.17628      4.24304        -0.148164     -0.032159     -0.045720
Co	      2.06873      6.22092      8.28955        -0.008586     -0.130186      0.129217
Co	      8.16742      6.24220      6.24720        -0.347577      0.015408      0.057632
Co	      6.17884      4.13865      6.26276        -0.050081      0.088530      0.134801
Co	      4.14022      6.15880      6.26701        -0.226111     -0.072708     -0.172363
Ni	      8.23443      4.16835      4.21895         0.026331     -0.087354     -0.028405
O	      1.99620      2.05868      2.07848        -0.063957     -0.003165     -0.077395
O	      4.10182      4.02769      2.04458         0.001561      0.045210     -0.052844
O	      4.18499      2.09220      4.09145         0.048736      0.103241      0.403113
O	      6.18068      4.01850      4.27870        -0.048763     -0.080527      0.046176
O	      6.18022      2.14960      6.24368        -0.243305      0.020680     -0.122443
O	      8.10320      4.22474      6.22164        -0.209201     -0.198822      0.075254
O	      1.97540      4.15409      4.18688         0.135142      0.041052      0.023573
O	      4.13411      6.30718      4.02655        -0.030434     -0.093170     -0.062615
O	      4.21814      4.17274      6.28428         0.102595      0.262113      0.021276
O	      6.09074      6.05703      6.27476         0.617090      0.065745     -0.008419
O	      6.18900      4.05268      8.28684        -0.011634     -0.054018      0.000207
O	      8.46959      6.19303      8.30063        -0.051311     -0.005105     -0.445355
O	      2.25138      6.15756      6.32384         0.188519      0.087158     -0.054973
O	      4.14517      8.17997      6.31126         0.027281     -0.022486     -0.000079
O	      4.13885      6.43520      8.41800        -0.019352      0.112445      0.071061
O	      6.11699      8.28463      8.50909         0.005140      0.005331      0.236329
O	      6.17800      6.26063     10.50248         0.122361      0.113473      0.016289
O	      8.21683      8.29598     10.41653        -0.267866     -0.106169      0.061342
