# total energy = -211.23361972 eV
 
CRYSTAL
PRIMVEC
0.047627 6.272083 6.322356 
6.187292 -0.001042 6.371720 
4.128777 4.218264 -0.004916 
PRIMCOORD
36 1
Li	      2.06680      2.07804      0.04751         0.097394     -0.005469     -0.003436
Li	      6.20982     10.36577      8.38486        -0.007844     -0.026397      0.026874
Li	      4.26810      8.41232      8.44789        -0.067339      0.029015      0.054016
Li	      6.20535      6.35704      4.30650        -0.012832      0.000688     -0.045404
Li	      4.13111      4.15833      4.33920        -0.054016     -0.031412     -0.077219
Li	      4.09618      2.19126      6.38772         0.059088     -0.083627     -0.020826
Li	      2.08970      6.24009      4.19063         0.033630     -0.044091     -0.050127
Li	      6.34330      8.35550      6.47256        -0.156884      0.000385      0.051234
Li	      8.17348      8.33421      8.33445         0.079309     -0.038252      0.063590
Ti	      8.29508      4.14923      8.36698         0.117357     -0.167887      0.039539
V	      4.04616      0.11564      4.12607         0.027628     -0.127198      0.081098
V	      4.16880      8.28060      4.29241         0.002588      0.244250     -0.125250
Fe	      0.23374      6.36772      6.34623        -0.302270     -0.182895     -0.039094
Cu	      4.08699      6.14462      6.36776        -0.096104      0.228040     -0.032204
Ni	      6.31142      8.35768     10.52512         0.017368     -0.018271      0.131568
Ni	      6.17955      2.11576      8.38886         0.072928      0.015346      0.139953
Ni	      6.13114      4.21707      6.37091         0.212755     -0.275673     -0.024226
Ni	      6.27896      6.39063      8.36444        -0.083191     -0.088660      0.107629
O	      2.04713      2.26824      2.12543         0.117106      0.230366     -0.024327
O	      4.06855      4.23225      2.05341        -0.126601     -0.109742      0.033214
O	      4.15464      1.88200      4.31989        -0.046885      0.193244      0.032324
O	      6.38570      4.14708      4.30766        -0.144778      0.126434     -0.075537
O	      6.22795      2.05059      6.30833         0.000248      0.110812     -0.017196
O	      8.28765      4.18053      6.40412         0.114857      0.046592      0.142286
O	      1.86789      4.22261      4.08283         0.227860      0.011617     -0.088239
O	      4.09006      6.53414      4.08112        -0.011579     -0.220058      0.117538
O	      4.14955      4.21267      6.28521        -0.092301     -0.127370      0.050862
O	      6.04057      6.23696      6.37598        -0.129430      0.103305     -0.149937
O	      6.24741      4.25038      8.54554         0.038839      0.009318     -0.065648
O	      8.28572      6.15651      8.46649        -0.035480      0.007644     -0.035183
O	      2.11481      6.28035      6.33295         0.272874      0.006986     -0.040133
O	      4.19712      8.42061      6.09090         0.014966     -0.048661      0.156680
O	      4.18622      6.32404      8.71481        -0.104559      0.034216     -0.091900
O	      6.23330      8.35571      8.55238         0.001985      0.132848     -0.132826
O	      6.11498      6.22333     10.67362         0.038157      0.031233     -0.060889
O	      8.45632      8.58021     10.57228        -0.074844      0.033323     -0.028806
