# total energy = -211.27943762 eV
 
CRYSTAL
PRIMVEC
0.025877 6.140565 6.260717 
6.258915 0.017832 6.268722 
4.192182 4.118803 -0.007710 
PRIMCOORD
36 1
Li	      2.15484      8.17173      6.20588         0.037311     -0.010844     -0.055236
Li	      4.16354      2.04286      2.18635        -0.005364      0.009181     -0.015761
Li	      4.15425      0.06766      4.14148        -0.008328     -0.066475     -0.019070
Li	      4.23023      6.16893      2.18226         0.051951      0.008185      0.028385
Li	      4.21213      4.11856      4.17780         0.003311      0.020098      0.027136
Li	      4.15954      2.08288      6.16458        -0.015501      0.003668     -0.054400
Li	      2.20433      6.19807      4.16099         0.041518      0.000897      0.029064
Li	      4.19907      6.14959      6.18564        -0.015825     -0.029707      0.006423
Li	      6.23999      6.15457      8.36384        -0.082285      0.007975     -0.036264
Ti	      2.12980      4.03431      6.18935         0.045814     -0.019765     -0.058005
V	     10.34502      4.22605      6.25391         0.074410     -0.033590      0.056717
V	      8.41450      8.13026      8.38329         0.011848      0.041469     -0.026440
Fe	      2.12613      0.08625      2.11551        -0.106773     -0.075492     -0.012647
Cu	      2.12783      2.03111      4.16657         0.033379      0.033681      0.029681
Cu	      6.26552      4.14378      6.24067         0.006524     -0.059661      0.011360
Ni	      6.18544      2.06136      4.15001         0.125098     -0.066511     -0.048538
Ni	      2.11400      4.14986      2.13848         0.030298      0.001749      0.024913
Ni	      4.16656      8.16739      4.17281        -0.028938      0.141814     -0.038037
O	      2.12762      2.02991      2.18767        -0.011468      0.124029     -0.149047
O	      4.23479      4.13731      1.89811         0.069596      0.028603      0.076134
O	      4.17686      2.05706      4.16053        -0.038137      0.003712      0.046627
O	      6.26617      4.11629      4.21218         0.020581     -0.045011     -0.062566
O	      6.30624      1.93799      6.20397         0.003348      0.104851      0.109877
O	      8.54988      4.09473      6.36721        -0.011083      0.016769     -0.092478
O	      2.08656      4.10982      4.22683         0.073661      0.124115      0.160214
O	      4.30022      6.20445      4.17113        -0.092511     -0.110237     -0.005511
O	      4.03051      4.10997      6.33691        -0.252412     -0.043230     -0.005199
O	      6.26758      6.23700      6.20306         0.002356      0.091319      0.155247
O	      6.21749      4.14407      8.24232        -0.084719     -0.049598      0.107734
O	      8.35492      6.29189      8.34883        -0.015500      0.007477     -0.007627
O	      1.99785      6.07450      6.34812         0.028414     -0.028758     -0.089902
O	      4.31208      8.33985      6.24177         0.030335     -0.036003      0.088112
O	      4.10108      5.96520      8.32726         0.149382     -0.019360      0.027029
O	      6.34971      8.23832      8.30073        -0.012664     -0.085931     -0.103498
O	      6.28728      6.13092     10.65775        -0.037032      0.008335     -0.069310
O	      8.36033      8.20892     10.32228        -0.020593      0.002249     -0.035117
