# total energy = -211.67088672 eV
 
CRYSTAL
PRIMVEC
0.051784 6.316883 6.284635 
6.281360 0.060377 6.275320 
4.192107 4.209519 0.035823 
PRIMCOORD
36 1
Li	      6.27221      0.16115      6.31332         0.059072     -0.057653     -0.019500
Li	      4.25286      2.27329      2.10529         0.052293      0.007286      0.002046
Li	      4.24157      4.22651      4.10994        -0.021718      0.004772      0.061593
Li	      4.31675      2.08007      6.27980         0.029156      0.033130      0.022183
Li	      6.31913      4.17141      6.31098        -0.068199      0.055042      0.073249
Li	      6.32967      4.39585     10.39676        -0.020310     -0.038513     -0.041475
Li	      8.25275      6.27881     10.50902        -0.028593     -0.079792     -0.015902
Li	      6.31927      8.47700      6.35235         0.007883     -0.012279     -0.015702
Li	      6.30327      6.33630      8.44423        -0.039678     -0.073678     -0.058851
Ti	      2.20242      2.20519      4.22537         0.075403      0.351497      0.108901
V	      4.19134      6.46397      6.25149         0.218889     -0.231761      0.063884
V	      8.40665      8.28839      8.32509         0.078995     -0.053019     -0.051458
Fe	      8.47358      4.23313      4.35567        -0.107869     -0.007050     -0.087039
Cu	      8.32540      2.17084      6.29543         0.175158     -0.054855     -0.088746
Cu	      6.32511     10.52254      8.40412         0.048791      0.061912      0.025344
Cu	      2.15091      4.21304      2.08915         0.011069      0.317835     -0.063037
Ni	      6.27264      2.13448      4.22814        -0.067742      0.030612     -0.065685
Ni	      6.29622      2.10346      8.29615        -0.095475      0.150415      0.195020
O	      2.02835      2.23221      2.28173         0.173921     -0.322766      0.063413
O	      4.35489      4.25644      2.12010        -0.310602     -0.164971     -0.040408
O	      4.12642      2.07912      4.25238        -0.162981      0.055416      0.006856
O	      6.39689      4.34217      4.17705         0.055943      0.003741      0.029604
O	      6.37944      2.17215      6.25590        -0.118643      0.004253      0.032731
O	      8.38046      4.17921      6.34667         0.065898      0.016519     -0.110931
O	      2.11424      4.10553      4.10660         0.036027     -0.179223      0.322768
O	      4.28135      6.26749      4.41070         0.032192      0.025295     -0.094700
O	      4.16948      4.37416      6.45607        -0.031002     -0.058533     -0.085238
O	      6.10739      6.37382      6.22523         0.035776     -0.028982     -0.105935
O	      6.04728      4.20064      8.38659         0.063396      0.049831     -0.025270
O	      8.41266      6.43700      8.35048        -0.106015      0.024701     -0.011420
O	      2.30019      6.36999      6.27542        -0.157405     -0.065377     -0.026846
O	      4.16149      8.24126      6.35024         0.012518      0.210065      0.001118
O	      4.17708      6.23788      8.23372         0.213597      0.036694     -0.001721
O	      6.51264      8.37233      8.43475        -0.177003      0.115892     -0.117901
O	      6.23561      6.39052     10.48172         0.035732     -0.090322      0.055673
O	      8.37999      8.57692     10.24979         0.031527     -0.036133      0.063386
