# total energy = -209.87017210 eV
 
CRYSTAL
PRIMVEC
0.020196 6.315148 6.288301 
6.335909 0.017071 6.291449 
4.225078 4.213311 0.010160 
PRIMCOORD
36 1
Li	      6.36451      4.24842      2.33665        -0.129359      0.080762      0.036383
Li	      8.24925      4.20830      4.22945        -0.014691      0.071318      0.060786
Li	      6.32713      2.35665      4.23257        -0.074668     -0.036329      0.054714
Li	      8.51652      4.29389      8.30833         0.105775     -0.055860     -0.025786
Li	      6.34452      6.08369      4.36718         0.028217      0.034623     -0.054960
Li	      4.44903      4.23551      4.34433        -0.052299     -0.072341      0.007837
Li	      8.31569      6.35226      6.32884         0.088151     -0.013478     -0.033435
Li	      6.27504      4.32235      6.13001        -0.028336     -0.054418      0.029785
Li	      6.41933      8.31065      6.28215         0.031500      0.052718      0.003901
Ti	      8.38180      2.21167      6.25566        -0.407194      0.335871      0.223863
V	      4.26948      2.14231      2.36244        -0.149533      0.087038      0.279680
V	      0.22561      4.26688      4.12955         0.029243     -0.550265      0.146200
Fe	      4.15875      4.27761      8.31095        -0.086458     -0.195774      0.291084
Cu	      6.39595      6.37281     12.55611        -0.134494     -0.067435     -0.099764
Cu	      4.22081      6.26029      2.14776         0.341506      0.052486     -0.056881
Cu	      8.47581      6.39822     10.46355         0.021129     -0.120804     -0.032851
Cu	      6.33685      6.30669      8.30283         0.078056     -0.016750      0.258581
Ni	      4.29770      6.26621      6.27822        -0.288820      0.209286     -0.246587
O	      8.54266      6.44706      8.47921        -0.456774      0.049932     -0.043318
O	      2.39635      2.06628      1.91025         0.100565     -0.063750     -0.061575
O	      4.26053      3.90672      2.13113         0.050945      0.148223     -0.039692
O	      4.20558      2.08668      4.07686        -0.035697     -0.054919     -0.035858
O	      6.32319      4.21342      4.24274         0.031794      0.026614      0.035205
O	      6.47899      2.08092      6.45559         0.323961      0.250995     -0.194458
O	      8.61674      4.09104      6.30368        -0.255264     -0.240687     -0.059617
O	      1.97690      4.33282      4.14045         0.176530     -0.019774     -0.002663
O	      4.35357      6.53883      4.10568         0.127074      0.047191      0.065348
O	      4.17880      4.25529      6.42522        -0.053138     -0.015312     -0.159033
O	      6.31791      6.31266      6.37790         0.073559     -0.056695      0.018276
O	      6.24760      4.26935      8.55090         0.075231     -0.016711     -0.118778
O	      2.05385      6.43927      6.13082         0.353650     -0.118265      0.037852
O	      4.16154      8.36028      6.04436         0.099244     -0.150663     -0.016726
O	      4.15214      6.39562      8.33190         0.074720     -0.100301      0.008541
O	      6.17335      8.34953      8.40374         0.078929      0.015889     -0.051172
O	      6.17914      6.06769     10.36101        -0.125306      0.405750     -0.125871
O	      8.45178      8.39838     10.51038         0.002255      0.151833     -0.099009
