# total energy = -184.62547845 eV
 
CRYSTAL
PRIMVEC
4.162956 0.023064 4.231930 
-4.139915 4.138801 -0.000004 
-8.327684 -4.186564 4.210231 
PRIMCOORD
32 1
Li	     -7.16085     -3.02068      5.12512         0.007463      0.007826     -0.013525
Li	     -3.13656      1.00260      5.31429        -0.002245     -0.000867      0.013235
Li	     -9.49540      0.86679      3.35138         0.011021      0.010661      0.002093
Li	     -0.92342      1.19778      3.03507         0.000474     -0.020737     -0.013788
Li	     -7.41460     -1.21464      3.35020         0.012822      0.012410      0.004268
Li	     -2.93989      3.21435      3.03619        -0.022411     -0.001798     -0.016614
Li	     -5.31806     -1.17702      5.34996         0.016007      0.013667      0.000207
Li	     -5.10323      3.17473      0.94540        -0.010079     -0.009819      0.001955
Mn	     -3.07945      1.06002      1.01967         0.000468     -0.000687     -0.015416
Mn	     -5.18499      1.03720      3.16569        -0.003012      0.009658      0.001767
Mn	     -3.10169     -1.04562      3.16568         0.006648     -0.002212     -0.000489
Mn	     -1.03539     -1.03556      5.27310         0.006792      0.005165     -0.003658
Ni	     -7.31060      0.96828      5.33121         0.078967      0.081117     -0.059795
Ni	     -5.18587     -3.13283      7.36838        -0.036959      0.015664      0.035508
Ni	     -7.27339     -1.04583      7.36829         0.013807     -0.039894      0.036228
Ni	     -9.33870     -1.05849      5.27760        -0.037890     -0.039762     -0.012055
O	     -5.04397     -0.90492      3.23881         0.031012      0.029233      0.010462
O	     -0.97893      3.15959      3.11048        -0.094349     -0.096765      0.078408
O	     -7.30711     -1.04758      5.31676         0.114036     -0.119415     -0.095390
O	      0.93996     -0.95226      5.42631         0.017171      0.006467      0.032544
O	     -5.18658     -3.16593      5.31672        -0.123464      0.115241     -0.093972
O	     -0.95166      0.93968      5.42611         0.007220      0.017833      0.034350
O	     -3.13576     -3.13483      7.35046         0.105690      0.112978      0.123827
O	     -3.20282      0.93656      3.06769        -0.019726     -0.024512     -0.011990
O	     -5.25327     -1.11302      7.47680         0.089674      0.094935     -0.068184
O	     -1.16687     -1.16696      3.06338        -0.018576     -0.016418     -0.018600
O	     -2.96900     -1.01505      5.08042        -0.011848      0.064536     -0.062110
O	     -3.11239      2.92362      1.05411        -0.093034     -0.075790      0.080629
O	     -5.15481      1.16966      5.08046         0.066862     -0.012807     -0.062702
O	     -1.21624      1.02671      1.05458        -0.066587     -0.095341      0.076247
O	     -7.12453      1.15360      3.15439         0.037547      0.040017     -0.070412
O	      1.01961      1.01845      3.39177        -0.083503     -0.080582      0.086970
