# total energy = -209.01097957 eV
 
CRYSTAL
PRIMVEC
-0.036078 6.119055 6.691725 
6.128771 0.012729 6.643231 
4.109871 4.070766 -0.017309 
PRIMCOORD
36 1
Li	      6.12279      8.22785     11.04742         0.067793     -0.016901      0.028279
Li	      8.10619      4.13092      8.97063        -0.081753      0.033515      0.022142
Li	      4.03809      4.12779      4.66032        -0.012409      0.034924      0.276511
Li	      8.10817      6.23387      6.74924        -0.152446      0.155767      0.004527
Li	      6.05432      4.13875      6.67892        -0.234767      0.089314      0.065443
Li	      2.03222      6.00535      4.37975        -0.001401      0.057224     -0.028439
Li	      2.12130      4.03349      6.55394         0.282007     -0.085046     -0.190597
Li	      4.12697      5.98244      6.64794         0.133369     -0.155732     -0.072447
Li	      4.04117      4.09573      8.53956         0.153375     -0.027797     -0.285069
Ti	     10.17425      4.10298      6.63998        -0.154316      0.083329     -0.329559
V	      2.03651      2.01403      0.00249        -0.040906      0.121377     -0.239849
V	      4.15139      8.15075      8.97425         0.415090     -0.313831      0.108232
Fe	     10.05187      6.24005      8.93133        -0.032355      0.205751     -0.036192
Cu	      2.08470      6.08603      8.92000         0.053095     -0.205751      0.028121
Cu	      4.08493      0.01454      4.43095         0.033919     -0.191380      0.223816
Cu	      6.12257      6.13362      4.50107        -0.027992     -0.096925      0.581840
Cu	      0.01016      4.06271      4.41819        -0.078609      0.087212      0.060452
Cu	      6.20727      6.06826      8.69707         0.179895     -0.153992     -0.521343
O	      8.15012      6.13587      8.91212        -0.050329      0.004101      0.131955
O	      6.05734      8.16152      8.93068        -0.683206     -0.000150      0.069074
O	      2.08630      1.97039      2.01488         0.488270      0.282389      0.088892
O	      4.08042      4.03643      2.07827        -0.270553     -0.691465      0.199066
O	      4.04332      2.05111      4.11707         0.169699      0.153865     -0.752159
O	      6.28738      4.14314      4.20308         0.045379      0.211170      0.035477
O	      6.18483      1.97378      6.80806         0.012383     -0.171389      0.089261
O	      8.25832      4.00564      6.75295         0.244134      0.029508      0.191488
O	      1.94477      3.98986      4.46384        -0.010209     -0.146471     -0.043946
O	      4.13227      6.16228      4.25411        -0.323781     -0.199404     -0.181836
O	      4.08115      4.06789      6.58764        -0.028674      0.024220     -0.052711
O	      6.13876      6.10946      6.54087         0.069673     -0.018502      0.306984
O	      6.07507      4.08430      8.83106         0.047208      0.021990     -0.082468
O	      1.91407      6.16632      6.81914        -0.108502     -0.110407     -0.031732
O	      3.99182      8.22599      6.96115         0.074550      0.053440      0.314810
O	      4.24964      6.24241      8.78405        -0.158247      0.951894      0.008978
O	      6.03156      6.06892     11.41618        -0.000982      0.110893      0.088436
O	      8.20921      8.16607     11.50811        -0.018399     -0.126740     -0.075438
