# total energy = -209.34189688 eV
 
CRYSTAL
PRIMVEC
-0.104550 6.371701 6.223023 
6.261491 -0.023540 6.143227 
4.173507 4.193055 -0.014942 
PRIMCOORD
36 1
Li	     10.36070      4.27760      6.19845         0.002933      0.056293     -0.053842
Li	      6.14602      4.29590      2.12982        -0.011349     -0.029383      0.047650
Li	      8.20302      4.28914      4.16010        -0.051089      0.065626     -0.072358
Li	      6.16220      2.21734      4.19732        -0.037179      0.016021     -0.072250
Li	      0.09995      1.98512      1.97793         0.026181     -0.077345      0.046223
Li	      2.11956      4.14752      1.99525         0.020262     -0.031290      0.019817
Li	      2.10847      2.01582      4.05571         0.021897     -0.001555      0.001819
Li	      4.24355      4.14508      4.08800        -0.003934     -0.039492     -0.013005
Li	      4.28337      1.98338      6.06840         0.002329     -0.042271      0.040223
Ti	      4.07765      4.26131      8.23635        -0.056574     -0.002301      0.080370
V	      2.13012      6.28196      4.16747        -0.090085      0.028930     -0.128955
V	      6.20732      6.33291      8.21129         0.062605      0.050989      0.236771
Fe	      4.02835      2.26123      2.10774         0.179758     -0.259890     -0.183674
Ni	      8.27270      2.12002      6.14351        -0.014120      0.005087     -0.049381
Ni	      6.28118      4.11505      6.11118        -0.060720      0.059179      0.103319
Ni	      4.12767      8.44296      4.15947        -0.038786      0.026035     -0.002362
Ni	      4.07818      6.33639      6.19980         0.027106      0.053053     -0.003397
Ni	      1.99369      4.25863      6.18504         0.035997     -0.083092      0.043290
O	      6.22888      4.22359      4.24745        -0.036773      0.001326     -0.220613
O	      2.15071      2.04998      2.02581        -0.306317     -0.012549      0.104447
O	      4.19834      4.07814      2.03919        -0.002667      0.444319     -0.024807
O	      4.15508      2.11593      3.89210         0.032119     -0.060308      0.551212
O	      6.26326      2.11806      6.15951        -0.132339     -0.098775     -0.011809
O	      8.23700      4.16047      6.10749         0.074075      0.064663      0.067676
O	      1.95485      4.36180      4.18624         0.227873     -0.034400     -0.235987
O	      3.96399      6.37663      4.10843         0.004265     -0.111418     -0.110554
O	      4.10966      4.28043      6.30788         0.063032     -0.129102      0.063686
O	      6.16982      6.32710      6.35193         0.052008      0.072630     -0.123071
O	      6.09518      4.31799      8.19547        -0.037610     -0.040657     -0.058363
O	      8.21913      6.44260      8.26263         0.041859      0.042668      0.000009
O	      2.00738      6.33517      6.07831        -0.048657      0.055848      0.041680
O	      4.08698      8.37309      6.31676         0.005146      0.064390     -0.196357
O	      4.20369      6.25987      8.29370        -0.066539     -0.145073      0.068555
O	      6.26722      8.34826      8.23050         0.157505      0.047254      0.084187
O	      6.34860      6.29112     10.10546         0.056970      0.070792      0.106533
O	      8.33003      8.32622     10.21703        -0.099182     -0.026203     -0.146680
