# total energy = -217.37360463 eV
 
CRYSTAL
PRIMVEC
-0.007120 6.189565 6.287600 
6.281450 0.007586 6.272755 
4.182531 4.111492 0.010281 
PRIMCOORD
36 1
Li	      6.31123      6.17359     12.38916        -0.012597     -0.002226     -0.066098
Li	      8.33249      4.13346      4.18301        -0.023981     -0.023917      0.021141
Li	      6.22816      2.13922      4.28128        -0.006317      0.023051      0.076591
Li	      6.34924      6.08054      4.25851         0.015783      0.042213      0.002281
Li	      4.20452      2.11955      6.11061         0.003841     -0.007763      0.006096
Li	      6.17427      4.12913      6.12380        -0.045131      0.014463      0.017878
Li	      8.30690      6.23605     10.46198        -0.011477     -0.026420     -0.016343
Li	      4.21258      6.15487      6.28520         0.015872     -0.025995      0.014078
Li	      8.27611      8.32140      8.48902        -0.043244      0.001678      0.129511
Ti	     10.38771      6.23047      8.36602        -0.102612      0.059430     -0.070724
V	      8.39771      4.12035      8.29803        -0.047312      0.045427      0.064827
V	      2.14962      4.11035      6.20583        -0.012510      0.029645     -0.061643
Fe	      2.12524      8.10960      6.19050        -0.000747      0.058249      0.145194
Fe	      6.13969      6.23196      8.47040         0.161537     -0.101818     -0.182139
Co	      4.21067      4.11845      4.21256         0.015894     -0.022359      0.087974
Cu	     10.38096      8.24432     10.51691        -0.020935     -0.068485     -0.054872
Ni	      6.34943     10.25729      8.50024         0.004861     -0.010122     -0.054078
Ni	      4.21698      2.03483      2.16137        -0.042971      0.064281     -0.012585
O	      2.04693      2.10007      2.06890        -0.082151      0.060680     -0.019017
O	      4.13794      4.18285      2.23860        -0.015173      0.129733     -0.002084
O	      4.20049      2.20461      4.15249         0.003794      0.016801      0.108795
O	      6.12944      4.13595      4.18452        -0.014916      0.023608      0.114314
O	      6.39566      2.01109      6.45524        -0.065100      0.027441      0.124040
O	      8.43261      4.05902      6.52268         0.037248      0.008502     -0.117931
O	      2.19658      4.12835      4.13979         0.138651      0.003692      0.026343
O	      4.19504      6.21226      4.03822         0.004520     -0.143867     -0.076634
O	      4.07657      4.15159      6.11602         0.023798     -0.002272     -0.013644
O	      6.26860      6.38261      6.37553         0.010716     -0.052964     -0.009132
O	      6.39446      4.10329      8.31699         0.016961     -0.062530     -0.116490
O	      8.44477      6.10508      8.34803         0.084911      0.053124      0.029316
O	      2.08191      6.06901      6.36133        -0.003416     -0.025423     -0.071452
O	      4.19069      8.24602      6.36680         0.069680     -0.029557      0.049049
O	      4.21348      6.18736      8.40793        -0.024816     -0.122324     -0.012844
O	      6.29494      8.21565      8.26578         0.083533     -0.044711     -0.012131
O	      6.28072      6.06694     10.36548         0.008302      0.112118      0.188629
O	      8.32587      8.23079     10.60359        -0.124495     -0.001385     -0.236217
