# total energy = -216.32565902 eV
 
CRYSTAL
PRIMVEC
0.020365 6.270036 6.206167 
6.207442 0.015937 6.209867 
4.159669 4.203854 -0.010336 
PRIMCOORD
36 1
Li	      6.25929      6.24855     12.24515        -0.032626      0.041751      0.010325
Li	      6.24860      8.17196     10.37026         0.055456      0.010684      0.063324
Li	     10.32773      6.45445      8.37797        -0.046579      0.039173     -0.038293
Li	      8.15866      4.25369      8.32060        -0.039022      0.023294     -0.124355
Li	      4.09030      4.31166      4.13842         0.116274      0.016600      0.019631
Li	      6.29802      4.30463     10.22761        -0.166277     -0.000102     -0.130173
Li	      2.00394      6.14933      4.13345         0.023709      0.112614     -0.032502
Li	      4.09416      6.28952      6.12237         0.026663     -0.016108     -0.013104
Li	      6.23031      6.13703      8.42341         0.025142     -0.072177     -0.026960
Ti	      4.21034      2.16616      2.08954        -0.259881      0.252681      0.048743
V	      8.26653      8.35829     12.27646         0.024078      0.032191      0.081974
V	      8.36254      6.28207      6.29606         0.109474     -0.045243     -0.014794
Fe	      6.23206      4.21279      2.11183        -0.043898      0.202764      0.028750
Fe	      6.05040      6.37281      4.14470         0.175246     -0.587766     -0.024977
Co	      2.07560      4.18739      6.16388        -0.074911      0.404371     -0.986216
Ni	      4.27213      6.30554     10.34459        -0.060507     -0.108683      0.101424
Ni	      6.20509      4.21438      6.21820        -0.134868      0.155220     -0.041624
Ni	      4.20889      4.21270      8.30900         0.040200     -0.066276      0.057542
O	      2.17674      2.08282      1.97111         0.065231      0.015930      0.124471
O	      4.23388      4.02802      2.12052        -0.040461     -0.341335      0.027676
O	      4.15060      2.09198      4.12684        -0.078396      0.192047     -0.108398
O	      6.30738      4.32277      4.09874        -0.081445      0.076475     -0.159333
O	      6.24906      2.15024      6.18246         0.013649     -0.195520     -0.013538
O	      8.27470      4.19850      6.20166         0.161689     -0.024734      0.063551
O	      2.08929      4.12948      4.28311        -0.133758      0.511687      0.043958
O	      4.21762      6.28454      4.13010        -0.220952      0.040519     -0.021677
O	      4.05437      4.06202      6.22850         0.842634     -0.018619     -0.046010
O	      6.37496      6.40945      6.14673        -0.001755     -0.864029     -0.024645
O	      6.15357      4.21115      8.18728         0.201759     -0.019341      0.390523
O	      8.33931      6.28701      8.06322        -0.020903     -0.076827      0.104135
O	      2.07701      6.33165      6.29541        -0.011315      0.397262     -0.006286
O	      4.15225      8.35485      6.33755        -0.436579     -0.009847      0.279436
O	      4.10015      6.33623      8.28359         0.048243      0.155875     -0.061016
O	      6.23164      8.43077      8.14172        -0.300784     -0.045959      0.455334
O	      6.23421      6.27841     10.32018         0.234340     -0.064546      0.007204
O	      8.31865      8.39402     10.50140         0.021131     -0.124025     -0.034100
