# total energy = -218.89411984 eV
 
CRYSTAL
PRIMVEC
-0.017583 6.256883 6.231299 
6.309557 -0.013932 6.226971 
4.195357 4.156831 0.002393 
PRIMCOORD
36 1
Li	      6.27479      4.12649      2.18788         0.020407      0.034665     -0.058815
Li	      8.33088      4.17254      4.19127        -0.001358     -0.007355      0.047602
Li	     10.30271      6.14940      8.36895        -0.007807      0.020008      0.021759
Li	      8.49341      4.35719      8.31301        -0.052603      0.031540      0.000563
Li	      2.13113      2.04376      4.14225        -0.035704      0.024700      0.076607
Li	      4.23933      4.10753      4.09431        -0.014406      0.029088      0.094195
Li	      8.33501      6.25982      6.30876        -0.070859      0.076855      0.018878
Li	      8.40178      6.22807     10.24059         0.013410     -0.005109      0.027574
Li	      6.46454      6.29932      8.24639        -0.021464     -0.085044     -0.093120
Ti	      6.35769      4.23063     10.20588         0.225270     -0.040756     -0.386911
V	      2.04297      2.08281      0.09754         0.320082     -0.259438     -0.045412
V	      4.20971      6.18855      6.21324         0.073408     -0.284296     -0.050432
Fe	     10.46861      4.18243      6.29528         0.068990     -0.091051     -0.067781
Fe	      4.27567      2.08740      2.22275        -0.050590     -0.144753     -0.305884
Co	      6.34593      4.19259      6.20756        -0.251772     -0.138685     -0.104857
Co	      2.08684      4.15641      6.18292         0.072698     -0.079356     -0.239868
Cu	      6.26038      2.09348      4.15767         0.095592     -0.100524      0.009284
Ni	      8.32947      8.23589      8.33789         0.095432      0.193344     -0.117897
O	      2.25053      2.01011      1.89436         0.021099     -0.036168      0.188605
O	      4.20686      4.05897      2.01078         0.042445      0.052102      0.113058
O	      4.27539      2.03420      4.10158        -0.181387     -0.065691      0.267266
O	      6.28199      4.03609      4.24350         0.164884      0.160419      0.576054
O	      6.45649      1.99442      6.33727        -0.182604      0.189657     -0.011357
O	      8.43944      3.99735      6.27129        -0.093773      0.252304     -0.137071
O	      1.94901      4.16975      4.23638        -0.352784      0.061659     -0.147098
O	      4.16573      6.40609      4.32139         0.019807      0.108999     -0.120847
O	      4.07481      4.26963      6.20813         1.210567      0.272437     -0.028665
O	      6.16145      6.33574      6.18547        -0.268375     -0.838958     -0.073545
O	      6.24496      4.18290      8.35375         0.156732      0.042846      0.179394
O	      8.39181      6.28670      8.28051        -0.008319     -0.180921      0.072755
O	      2.10327      6.22305      6.19757        -0.053493      0.695069      0.017940
O	      4.20956      8.31764      6.19291        -0.951018      0.126634      0.015958
O	      4.16917      6.29669      8.08455         0.010786      0.058118      0.090979
O	      6.26756      8.32476      8.09051        -0.088884      0.026778      0.188899
O	      6.26712      6.17676     10.49243         0.005359     -0.135395     -0.027341
O	      8.47087      8.31765     10.53904         0.070234      0.036279      0.009530
