# total energy = -219.72961282 eV
 
CRYSTAL
PRIMVEC
0.007092 6.266378 6.138435 
6.288683 -0.020763 6.166856 
4.181572 4.185217 -0.002972 
PRIMCOORD
36 1
Li	      6.21788      4.20042      2.11579        -0.068498      0.015334     -0.010879
Li	      8.27307      4.26630      4.12495        -0.010720      0.047913     -0.030126
Li	      6.11343      2.30847      4.08486        -0.057546      0.066717     -0.005396
Li	      2.14467      4.17905      2.10847         0.039244     -0.024320     -0.000872
Li	      4.17937      4.17361      4.16838        -0.012909     -0.013579      0.004072
Li	      4.19669      2.15694      6.06603         0.015949      0.022588     -0.035854
Li	      2.18906      6.08029      4.11208         0.070068     -0.080153      0.034736
Li	      2.24625      4.22587      6.04560         0.035936      0.011997      0.010702
Li	      4.12356      6.14488      6.11365        -0.001881      0.018966      0.049392
Ti	      6.33706      6.31543      8.13524        -0.255120      0.195004     -0.241969
V	      6.28032      6.25817     12.21849         0.018391      0.005818      0.312326
V	      8.37904      8.32697     12.18764        -0.078365     -0.072707      0.181416
Fe	      2.13313      2.07995      4.09161         0.126266     -0.029385     -0.001311
Fe	      4.19828      4.17347      8.15337         0.007690      0.184017      0.124810
Co	      4.19320      2.07066      2.12525        -0.008625      0.114416     -0.123919
Co	      4.16519      6.24567      2.05092        -0.082280     -0.103565     -0.005644
Ni	      6.27892      4.16914      6.09986         0.032864     -0.040678     -0.000833
Ni	      4.27161      8.29113      4.12424        -0.028518      0.039334      0.041069
O	      1.94415      2.07697      1.94324         0.064130      0.042048     -0.040037
O	      4.15709      4.28716      1.85678        -0.035629     -0.058411     -0.011277
O	      4.12666      2.11138      4.04545         0.046069     -0.036901     -0.327388
O	      6.27680      4.28301      4.11653        -0.005577     -0.059958     -0.165717
O	      6.34508      2.02476      6.23489        -0.044391     -0.052169      0.017779
O	      8.43943      4.04284      6.16120         0.049897      0.015675     -0.027165
O	      2.06896      4.04555      4.12228         0.082049      0.107863     -0.002696
O	      4.23519      6.28068      3.95144        -0.071163     -0.138636     -0.093221
O	      4.23506      4.18140      6.25770        -0.085325     -0.008452     -0.103690
O	      6.31822      6.22508      6.25715         0.055025      0.109709      0.292479
O	      6.23523      4.11504      8.22294         0.074518      0.023410      0.014433
O	      8.36130      6.30633      8.25039         0.006878     -0.082304     -0.005309
O	      1.98610      6.37263      6.13685         0.010119     -0.012863     -0.030659
O	      4.07661      8.45631      6.23201         0.020010     -0.122446      0.343042
O	      4.39138      6.20533      8.23655         0.174393      0.000157      0.088915
O	      6.36549      8.20582      8.24864        -0.117426     -0.095014      0.046209
O	      6.30677      6.19047     10.35785         0.053098      0.030920     -0.162304
O	      8.41546      8.33955     10.37962        -0.018619     -0.020343     -0.135113
