# total energy = -222.78780290 eV
 
CRYSTAL
PRIMVEC
0.020755 6.271027 6.281622 
6.321693 0.018016 6.284511 
4.225125 4.192975 0.001477 
PRIMCOORD
36 1
Li	      4.18287      4.10204      0.07145        -0.056409      0.030069      0.018226
Li	      2.26646      8.38365      6.37450        -0.010780      0.000221      0.002323
Li	      2.05529      0.04471      2.06822        -0.022387     -0.021748      0.006273
Li	      4.19611      2.19563      2.03356        -0.016000      0.086821      0.049331
Li	      6.24774      2.17369      4.23420        -0.036399      0.026962      0.035874
Li	      8.39485      6.23715      6.24248        -0.004290      0.030857     -0.023508
Li	      6.39392      4.26598      6.26926         0.010934      0.013072     -0.009108
Li	      4.27934      6.39422      6.28048         0.009554     -0.074189     -0.004310
Li	      6.32614      6.23733      8.27488         0.020675     -0.012052     -0.038330
Ti	      8.31345      6.34150     10.60296        -0.128422      0.029766      0.356219
V	      6.35237      2.08547      8.19860         0.037404     -0.240802     -0.200147
V	      4.10487      4.26980      8.25263        -0.221369     -0.120498     -0.476043
Fe	      8.43283      4.22722      4.32476         0.021525     -0.043932     -0.032241
Fe	      6.36938      6.26764      4.23876        -0.013957      0.030744      0.094109
Co	      8.44587      4.20761      8.25901         0.079560     -0.164227     -0.112890
Co	      4.32736      4.16207      4.17352        -0.104304      0.015899     -0.070909
Co	      6.21896      8.34881      6.29470         0.133041     -0.040294      0.186772
Cu	      4.19166      8.35531      4.26675        -0.008565      0.071274      0.114752
O	      1.99495      2.12160      2.17776        -0.031279      0.340205     -0.091649
O	      4.23891      4.29326      2.08244         0.057426      0.166200      0.255190
O	      4.18359      2.02704      4.13518        -0.010742      0.055944     -0.047318
O	      6.36656      4.25186      4.20535        -0.223227      0.013672     -0.092067
O	      6.30774      2.13596      6.45435         0.051106     -0.014057      0.182321
O	      8.43842      4.19158      6.21938         0.051982     -0.052237      0.277814
O	      2.30366      4.26863      4.09407         0.393328     -0.053290     -0.200712
O	      4.20741      6.27010      4.09717         0.028317     -0.059101     -0.040252
O	      4.24847      4.19003      6.46278        -0.045804      0.025719      0.272794
O	      6.35218      6.34193      6.18802        -0.040800      0.129843     -0.014038
O	      6.21487      4.09859      8.48863        -0.262272      0.007565      0.002727
O	      8.53578      6.41121      8.46252         0.029988     -0.178142      0.134341
O	      2.17474      6.24984      6.15225        -0.007424      0.026431     -0.456879
O	      4.27356      8.36058      6.22999        -0.009587      0.002412     -0.027764
O	      4.27738      6.04000      8.50283         0.018491      0.077550      0.062618
O	      6.54187      8.34366      8.39141         0.256187     -0.004047     -0.107266
O	      6.41281      6.23649     10.47114         0.174354      0.035225      0.010918
O	      8.34012      8.29154     10.38000        -0.119853     -0.137834     -0.017171
