# total energy = -222.16948291 eV
 
CRYSTAL
PRIMVEC
0.013967 6.357074 6.173737 
6.305127 -0.003996 6.191544 
4.201950 4.248582 -0.001356 
PRIMCOORD
36 1
Li	      4.20854     10.55151      6.13806         0.019855      0.008567      0.031412
Li	      8.38134      2.26160      6.20048         0.015410      0.087121      0.031669
Li	      2.15056      6.31884      8.12676        -0.016519      0.009523     -0.008664
Li	      8.52039     10.52692     10.40828         0.008980     -0.034665     -0.018187
Li	      6.30774      2.19327      8.14178         0.033902     -0.008088      0.015116
Li	      8.26578      4.24557      8.18836        -0.010428     -0.061630      0.023767
Li	      6.44433      4.13327      6.21687         0.052745     -0.056106     -0.006053
Li	      6.28882      4.40279     10.37455        -0.004619      0.098794     -0.038611
Li	      6.31178      6.34874      8.30365        -0.020426      0.044482     -0.020050
Ti	      4.35702      4.33575      8.26629         0.199483      0.169407      0.322134
V	      6.25044      6.32222      4.06097         0.176775      0.020631     -0.387792
V	      4.20654      4.25575      3.98288         0.025960      0.006667     -0.298921
Fe	      6.36336      8.34258     10.34812        -0.020391      0.101360     -0.137146
Fe	      8.46196      6.17776      6.30922         0.009994      0.019272     -0.179705
Co	      4.25890      8.41093      8.16565        -0.067300      0.083495      0.165643
Co	      8.37639      6.37003     10.28688        -0.186117     -0.030540      0.104897
Co	      2.09741      4.25040      6.17715        -0.082549     -0.034553     -0.018378
Ni	      4.16621      6.39800      6.18167         0.082194     -0.014779      0.072261
O	      2.15797      2.13127      2.25160         0.135928     -0.022801      0.144158
O	      4.17285      4.23650      2.22865        -0.033258     -0.055756      0.276173
O	      4.19373      2.21427      4.16346        -0.016133     -0.052482     -0.457070
O	      6.14283      4.34643      4.19646         0.073076     -0.166067      0.021246
O	      6.24111      2.13712      6.11633        -0.012299      0.037384      0.047299
O	      8.39485      4.31480      6.23184        -0.038270     -0.051050     -0.014273
O	      2.17930      4.13706      4.21974        -0.009756      0.080281      0.064143
O	      4.27906      6.23610      4.11939        -0.219616      0.025501     -0.040812
O	      4.06670      4.22420      6.16894        -0.009891     -0.087426     -0.027015
O	      6.35674      6.50075      6.03110         0.047709      0.042601     -0.024936
O	      6.17155      4.25212      8.24650        -0.303662      0.048132     -0.011776
O	      8.40759      6.50243      8.22256         0.013087      0.129083      0.456198
O	      2.15045      6.18041      6.09411        -0.197294     -0.079137     -0.413108
O	      4.34738      8.42410      6.17778         0.204572      0.081545      0.705492
O	      4.20412      6.24896      8.21521         0.040882     -0.175790      0.013157
O	      6.34669      8.50465      8.20487        -0.195568     -0.018974     -0.091302
O	      6.33827      6.44156     10.29243         0.280828     -0.087924     -0.016360
O	      8.34729      8.53308     10.22330         0.022717     -0.056078     -0.284608
