# total energy = -366.22479474 eV
 
CRYSTAL
PRIMVEC
4.239332 4.165774 8.388885 
4.172375 4.102182 -8.323965 
-4.188899 4.117300 -0.000726 
PRIMCOORD
64 1
Li	      2.13741      4.13227     -6.12594         0.011116      0.013056      0.003324
Li	      4.19598      4.15144     -4.04140         0.013806      0.007968      0.028692
Li	      2.23295      6.27717     -3.88560         0.019280      0.006613      0.018259
Li	      0.05216      2.07603     -2.06640         0.002728     -0.006900     -0.003597
Li	      2.24619      4.16856     -2.07253         0.033756      0.000043     -0.008671
Li	      4.16009      6.08236     -2.07044        -0.008115     -0.025894     -0.015203
Li	      0.08305      0.08752      0.05470         0.013802      0.009601      0.000447
Li	     -1.94230      6.28110      0.03164         0.001213     -0.004900     -0.011809
Li	     -0.06912      8.14044     -0.02583        -0.014013     -0.023871     -0.049462
Li	      0.09876      6.26331     -1.99029         0.007988      0.039968     -0.002605
Li	      2.07637      8.21135     -2.03463        -0.015816     -0.005505     -0.040774
Li	      1.93881     10.13353     -4.09819        -0.008410     -0.028360      0.007914
Li	      4.15127      4.09566      4.05417         0.005989      0.001642      0.022151
Li	      2.06638      8.26550     -6.00141        -0.002237     -0.002865      0.034075
Li	      1.96934      8.24541      1.99665         0.004409     -0.007044      0.009206
Li	      4.13549      8.18356     -4.16556        -0.026142     -0.013278     -0.000933
Mn	      6.24783      6.23112      4.19811         0.041340      0.068085      0.033047
Mn	      0.00161      6.26457     -6.17764         0.009820      0.024807      0.022782
Mn	      2.12352      8.30016      6.28953        -0.026094      0.009421      0.009267
Mn	     -2.02946      2.07136      0.04090         0.009519      0.009848      0.040159
Mn	      4.22228      8.27826      0.08824        -0.037162      0.001805     -0.007797
Mn	      4.22251      6.13807     -6.15231        -0.007038     -0.016297      0.079998
Mn	      2.14112      6.17098      4.07978        -0.005315     -0.005585      0.044471
Mn	     -0.01086      6.23542      6.20749        -0.027338     -0.014948     -0.044496
Ni	      0.01003      4.11636     -4.13326         0.004193      0.053589     -0.015661
Ni	      6.29748      6.20477      0.05392         0.033560      0.000421      0.026138
Ni	      0.05365      4.15074     -0.03208        -0.051517     -0.052844     -0.059521
Ni	      2.07485      6.18099     -0.03126         0.086917      0.085758     -0.007468
Ni	      2.13186      4.08369      2.05302        -0.039919     -0.017096      0.079777
Ni	      4.21373      6.15317      2.08440        -0.011304      0.028615      0.020821
Ni	     -0.03921      6.18980      2.08066        -0.029093     -0.036635      0.092192
Ni	      2.17304      4.16098      6.23782         0.022574      0.043815     -0.049501
O	      1.99161      3.91214     -4.10854         0.129111     -0.107443     -0.015038
O	      0.07349      8.25043     -2.05399        -0.005092      0.004916      0.015263
O	      2.12676      6.16188     -1.93558        -0.006509     -0.009771     -0.123286
O	     -0.14889      2.06001      0.08440        -0.069925     -0.087176      0.000950
O	      2.07147      4.19000     -0.00722         0.122551     -0.101538     -0.087964
O	      4.28497      6.39972      0.07544        -0.039371      0.087634     -0.110087
O	      4.17377      4.11058     -6.27146        -0.008048      0.040542     -0.010891
O	      1.99171      2.05049      2.08721        -0.092364     -0.100889     -0.002063
O	      4.15795      4.11498      2.05296         0.127059     -0.008725     -0.000988
O	      0.04061      6.13897      0.10536        -0.109096      0.113571     -0.076546
O	      2.35162      8.30311      0.06385         0.082680     -0.028209      0.013422
O	      2.27556     10.40679     -1.96392         0.041077     -0.141063     -0.070546
O	      0.11906      8.16923      6.30396         0.108160      0.006672      0.006720
O	      2.05334      8.18026     -4.00812         0.014277     -0.002731      0.006750
O	      2.14762      8.23674      4.31915        -0.096421      0.022128      0.029346
O	      4.29107      8.41628     -1.85852        -0.090468      0.002290      0.072704
O	     -2.18154      6.00846     -2.25069        -0.006950     -0.043357     -0.038244
O	     -0.24053      6.13465     -4.27596        -0.068051      0.106694     -0.028800
O	     -2.08098      3.99857     -0.17524        -0.077961     -0.032657     -0.042493
O	      2.16938      6.19598     -6.38504         0.046628     -0.014670     -0.054120
O	      4.26537      8.37741      2.05818         0.003937      0.037123     -0.098871
O	      4.15081      6.17354     -4.32117         0.014204     -0.009093     -0.088934
O	      2.04627      6.27653      6.38512         0.011184      0.107223      0.059157
O	      4.32279     10.28592      0.19280         0.070613     -0.018898      0.028261
O	     -0.24055      4.08896     -2.10009        -0.082069     -0.002107      0.012896
O	      6.26702      6.20514      2.22644         0.059474     -0.001143      0.079091
O	      0.04306      4.03030      2.05245        -0.078710     -0.081178      0.078344
O	      2.13711      6.18871      2.03054        -0.025515      0.091537      0.023532
O	      2.15687      4.30352      4.21840         0.013967      0.035988     -0.062404
O	      4.21563      6.23179      4.13854         0.024193     -0.111598      0.088916
O	      0.21069      6.18091      4.14008         0.005383      0.015029      0.043866
O	      6.23013      8.37173      0.01155        -0.030447      0.087863      0.096836
