# total energy = -223.28673713 eV
 
CRYSTAL
PRIMVEC
0.011790 6.450204 6.068784 
6.260285 0.018952 6.062094 
4.183414 4.305256 0.002568 
PRIMCOORD
36 1
Li	      6.22573      6.45627     12.01639         0.003704     -0.014521     -0.024157
Li	      8.37843      8.69538     11.97385         0.002920      0.059826      0.015242
Li	      8.34833      4.26789      4.18521        -0.046245     -0.000347      0.033948
Li	      4.16780      4.31954      4.16977         0.020139      0.019642     -0.020261
Li	      4.23831      2.25217      5.94855        -0.007902      0.040367     -0.052449
Li	      6.18771      4.22625      5.97313        -0.006107     -0.070076     -0.014269
Li	      4.18350      8.46746      4.19379         0.014713     -0.122077      0.026819
Li	      2.15228      6.56378      4.14334         0.077992      0.090345      0.009429
Li	      4.18609      6.41196      5.95621        -0.016043     -0.026166     -0.078505
Ti	      8.41738      4.43353      8.03648        -0.025485      0.168567     -0.384585
V	      2.10219      0.06242      1.99184        -0.035736     -0.507374     -0.090719
V	      6.21252      6.38939      8.10569         0.009689     -0.121141      0.349917
Fe	      4.17404      8.58694      8.03697         0.267157      0.039378      0.117062
Fe	      6.25687      2.20878      8.01612        -0.081187      0.050339      0.316158
Co	      4.21701      4.28565      8.09059        -0.010786      0.038967      0.097608
Co	      6.25138      2.17377      4.11220         0.089421      0.047005      0.093360
Co	      6.28823      6.44906      4.12419         0.085246      0.211435      0.648287
Co	      2.14997      4.33986      5.99889        -0.122700     -0.054832     -0.372026
O	      2.10113      2.07659      1.98661        -0.023426     -0.012578      0.256022
O	      4.19140      4.34170      2.00271        -0.109625     -0.001558     -0.055657
O	      4.21491      2.14501      3.96644         0.491151      0.033225     -0.091880
O	      6.25867      4.20655      3.91114        -0.032090      0.279945     -0.248495
O	      6.25437      2.18137      6.08638        -0.012895      0.009907     -0.115385
O	      8.35339      4.27426      6.21418        -0.044238     -0.024217      0.460018
O	      2.12575      4.17154      3.90452        -0.040306     -0.094855     -0.011335
O	      4.25958      6.46283      3.89613        -0.555303      0.002056     -0.218085
O	      4.12508      4.31313      6.13404         0.110081     -0.051123      0.141720
O	      6.26868      6.52833      6.28968         0.025911     -0.147659     -0.484039
O	      6.32540      4.40132      8.12962        -0.001511      0.248167     -0.046515
O	      8.32730      6.33732      8.11170        -0.077482     -0.182737      0.018530
O	      2.10554      6.39522      6.26613        -0.007980      0.135040      0.149460
O	      4.28430      8.62606      6.12583        -0.044745      0.024599      0.038452
O	      4.16276      6.53622      8.10127         0.080195      0.019714     -0.012715
O	      6.22402      8.64843      8.22583         0.151630      0.051308     -0.089837
O	      6.26490      6.66199      9.94717        -0.031458     -0.151496     -0.157665
O	      8.19899      8.60251     10.08767        -0.096700      0.012928     -0.203453
