# total energy = -214.38767077 eV
 
CRYSTAL
PRIMVEC
0.021945 6.164632 6.119992 
6.515360 0.011847 6.129907 
4.342466 4.114833 0.009595 
PRIMCOORD
36 1
Li	      8.59766      2.15991      6.14686        -0.079976     -0.001615      0.035747
Li	      6.32574      4.16104      2.05553        -0.086812      0.032206     -0.051993
Li	      4.31835      2.20440      2.02427        -0.013708     -0.018058     -0.033412
Li	      0.04476      2.03680      1.99779         0.077639      0.098223      0.036927
Li	      2.22973      4.09438      2.00205         0.004496      0.000347      0.012836
Li	      4.34080      4.11479      3.97791        -0.016895      0.027754     -0.021725
Li	      6.62862      4.02844      6.21735         0.121597      0.008616      0.069464
Li	     10.78978      8.22945     10.19158         0.007957     -0.064101      0.007555
Li	      8.80132      8.19776      8.23687         0.088701     -0.007300     -0.025280
Ti	      2.22364      1.97779      3.92634        -0.165537     -0.098691     -0.418737
V	      6.51504      8.25412      6.18330         0.032237     -0.140160      0.166200
V	      4.33261      6.16102      6.19034         0.162419      0.052770     -0.084139
Fe	      4.47709      2.03984      6.18450        -0.109518      0.188411     -0.146510
Fe	      6.58422      6.02499      8.27010        -0.063638      0.135964     -0.082214
Cu	      8.76018      6.24657     10.13004         0.052892     -0.176023      0.110841
Ni	     10.78056      4.13535      6.16370         0.017429     -0.127846     -0.133965
Ni	      6.55516      8.27836     10.16870        -0.065528      0.014374     -0.078672
Ni	      8.67128     10.22458     10.19875         0.114237      0.242291     -0.161070
O	      2.16522      2.08200      2.14261         0.086107     -0.065414      0.416115
O	      4.36438      4.13887      1.92122        -0.012591      0.052978      0.256945
O	      4.22519      2.06404      4.15894        -0.116362      0.032749     -0.031539
O	      6.57811      4.17510      4.07058        -0.134292      0.284716     -0.037249
O	      6.41239      2.03845      6.09849         0.073208      0.074245      0.051019
O	      8.74251      4.19507      6.11517        -0.184921     -0.107498      0.049395
O	      2.22032      4.05610      4.25999         0.058290      0.113458     -0.180117
O	      4.58297      6.14694      4.29939         0.207657     -0.001185     -0.104915
O	      4.18862      4.14432      6.14357         0.019835     -0.026169      0.038185
O	      6.48019      6.22277      6.16486         0.032010      0.019629     -0.134255
O	      6.51743      4.20542      8.19508        -0.046146     -0.449235     -0.001465
O	      8.59959      6.18716      8.17218         0.008945     -0.052020      0.232308
O	      2.32724      6.10361      6.05974         0.009213      0.194106     -0.084464
O	      4.53167      8.20233      6.12281        -0.025582     -0.065196     -0.036891
O	      4.44766      6.17683      8.01054        -0.020080      0.021294      0.123443
O	      6.50088      8.14830      8.04710        -0.014243      0.162232     -0.006198
O	      6.38819      6.21312     10.22811        -0.011377     -0.048070      0.142810
O	      8.59390      8.19308     10.21884        -0.007661     -0.307782      0.105022
