# total energy = -214.76533685 eV
 
CRYSTAL
PRIMVEC
0.010434 6.434123 6.145914 
6.262476 0.019575 6.136686 
4.176255 4.284786 0.011774 
PRIMCOORD
36 1
Li	      4.17577      4.23852      0.06256        -0.015919      0.008213      0.026423
Li	      2.15428      8.52240      6.23470         0.009609     -0.087045      0.015935
Li	      4.22347      8.49480      8.07151        -0.031906      0.004924      0.007972
Li	      6.37232      2.20918      8.11302        -0.061402     -0.022874     -0.013949
Li	      6.26711      4.28981      6.25334        -0.010279      0.009643     -0.032105
Li	      6.22001      8.55629      6.30808         0.023054     -0.018842     -0.036633
Li	      4.23087      6.53460      6.23056         0.035836     -0.011332      0.001572
Li	      4.13602      4.43340      8.12843        -0.019237     -0.065686     -0.033279
Li	      6.13578      6.50103      8.14737         0.052032      0.058717     -0.030280
Ti	     10.38248      8.65149     10.27208        -0.105981      0.111409      0.265668
V	      4.18995      4.31069      4.10302         0.081528     -0.008831     -0.042804
V	      8.34088      6.39990      6.32817        -0.048836      0.058146      0.180141
Fe	      2.20544      6.43067      8.10602        -0.070542      0.044314     -0.075455
Fe	      2.07892      6.45149      4.24041        -0.085427      0.172851     -0.253170
Cu	      6.25332      8.58492     10.20258         0.069412      0.017364      0.064348
Cu	      2.08028      4.12277      1.99695         0.054241      0.035608     -0.079988
Ni	      4.16181      0.06375      4.06542        -0.055090     -0.030929     -0.010681
Ni	      2.08552      2.14453      4.05891        -0.104627      0.054294      0.056408
O	      2.06777      1.98031      2.04569         0.002792     -0.019043     -0.138124
O	      4.09979      4.24826      2.22680         0.038653      0.028742      0.036302
O	      4.14784      2.24276      4.17330        -0.009723     -0.129527      0.051620
O	      6.17682      4.38001      4.06981         0.143458      0.089081     -0.048541
O	      6.02501      2.16214      6.01671         0.096260      0.047276      0.018854
O	      8.35142      4.51460      6.11391         0.000895      0.039326      0.029793
O	      2.11622      4.36756      4.04015        -0.140898     -0.089785      0.145086
O	      4.11536      6.35282      4.14427        -0.044192      0.081405     -0.024576
O	      4.17144      4.14805      5.96858         0.010267      0.022760      0.099045
O	      6.50240      6.46606      6.11413        -0.059770      0.013812      0.114422
O	      6.40251      4.23246      8.30121        -0.025269     -0.043691      0.054476
O	      8.39055      6.59861      8.08438         0.000052      0.037918     -0.010652
O	      2.04974      6.42408      6.12627        -0.014109      0.009179      0.079501
O	      4.24022      8.52873      5.97867        -0.037325      0.011460     -0.220740
O	      4.15409      6.43340      8.22611         0.116589     -0.011717     -0.116911
O	      6.27179      8.71515      8.28984        -0.023157     -0.095738     -0.076801
O	      6.31754      6.29504     10.20226         0.051363     -0.282221      0.019691
O	      8.45002      8.53458     10.25684         0.177649     -0.039178     -0.022566
