# total energy = -213.93146285 eV
 
CRYSTAL
PRIMVEC
0.003963 6.200033 6.420540 
6.241065 -0.006144 6.430253 
4.149480 4.128765 0.006958 
PRIMCOORD
36 1
Li	      6.17303      0.03062      6.38808         0.075251     -0.030129     -0.031214
Li	      6.13580      4.15309      2.30465         0.064837     -0.023294      0.029687
Li	      4.07247      2.18564      2.34733         0.016146     -0.069865      0.062440
Li	      4.29728      6.20282     10.59332         0.006935     -0.007243     -0.066580
Li	      6.15229      8.12544     10.56433         0.018911     -0.009549     -0.085256
Li	      2.10418      2.15159      4.15802        -0.003200     -0.024038      0.031729
Li	      4.08390      4.06245      4.16040         0.024240      0.012164      0.036313
Li	      8.27188      6.17280     10.70198        -0.004510      0.046098      0.066238
Li	      6.31645      6.14323      8.67981        -0.079490      0.005460      0.080565
Ti	      6.13237      8.32386      6.58691        -0.093917      0.186833      0.253971
V	      6.27576      4.13233      6.16591        -0.091748      0.048314     -0.538617
V	      4.19005      6.14417      6.54429         0.054396     -0.055548      0.157988
Fe	      2.05069      2.03448      0.02835        -0.014604      0.128626     -0.141857
Fe	      4.22031      2.02680      6.21602        -0.021600      0.055638     -0.102924
Cu	      4.13981      6.14759      2.15653         0.219783     -0.063421      0.044929
Cu	      8.31215      4.14834      8.59482        -0.014519     -0.020222     -0.012051
Cu	      0.03620      4.18662      4.36530        -0.077098     -0.062212      0.030470
Cu	      8.37752      8.18460      8.67310        -0.177459      0.158907      0.019280
O	      6.28299      6.02090     10.68645         0.029684      0.183729     -0.008604
O	      1.97803      2.13938      2.04001         0.014620      0.025725      0.144874
O	      4.02364      4.21845      2.20794        -0.040182      0.071653     -0.016546
O	      4.14726      2.05565      4.34654        -0.026680      0.004773     -0.120065
O	      6.18567      4.21726      4.40631        -0.017329     -0.031289      0.292046
O	      6.29356      2.14826      6.18083        -0.112745     -0.090770     -0.070232
O	      8.20163      4.13237      6.31299         0.064745     -0.058397     -0.077527
O	      1.91467      4.17071      4.56897         0.177501     -0.020859      0.136972
O	      4.15821      6.42001      4.66292         0.021067     -0.073902      0.075825
O	      4.12121      4.16137      6.25778         0.023232     -0.053510     -0.156111
O	      6.23929      6.20482      6.46498         0.087387     -0.043946      0.018337
O	      6.20530      4.02520      8.22633         0.130080      0.026669     -0.025596
O	      8.40214      6.18636      8.37224        -0.071249     -0.122268      0.071335
O	      2.15147      6.15266      6.55566        -0.093697     -0.101862      0.004323
O	      4.21946      8.19041      6.73414         0.108321      0.027039      0.158319
O	      4.20814      6.06413      8.37825         0.030830      0.064720     -0.017838
O	      6.39493      8.22933      8.47322        -0.130186     -0.059353     -0.236794
O	      8.55272      8.24960     10.91078        -0.097755     -0.024670     -0.007828
