# total energy = -218.23774526 eV
 
CRYSTAL
PRIMVEC
-0.038715 6.370290 6.326145 
6.142293 -0.017238 6.307809 
4.106913 4.246654 -0.023053 
PRIMCOORD
36 1
Li	      4.13602      2.15166      2.09975        -0.038038      0.013374      0.052846
Li	      4.17660      6.29172     10.41731         0.002235     -0.032574      0.012413
Li	      4.08113      6.31180      2.04371         0.053204      0.047755      0.032142
Li	      4.12602      2.14232      6.29093         0.010349      0.038679     -0.038182
Li	      6.07857      4.14338      6.36354         0.002521     -0.048694      0.092638
Li	      6.04728      4.36554     10.52608        -0.053877      0.013565     -0.089119
Li	      8.11493      6.45683     10.44732         0.024625      0.052096      0.024391
Li	      4.10781      6.32653      6.32346         0.021585     -0.083435     -0.011689
Li	      8.20888      8.53059      8.51281         0.027188      0.096488      0.007972
Ti	      4.09999      4.29228      4.28106        -0.030888      0.032764      0.156367
V	      8.09108      4.32464      8.36081        -0.233721     -0.427107     -0.205818
V	      6.15843      6.36255      4.22217         0.020029     -0.205171      0.160622
Fe	      8.17290      8.42753     12.48102         0.059891      0.081546      0.096151
Fe	      2.21864      6.41794      8.42768        -0.212037     -0.031909     -0.205995
Fe	      6.07652      8.46051      6.39578         0.072600      0.270298      0.115870
Cu	      6.12407      6.37035     12.54106        -0.083819      0.053255     -0.105946
Cu	      6.01781      6.37036      8.40026        -0.018628     -0.078214     -0.090537
Ni	      6.09968      8.41821     10.48273         0.082039      0.078087     -0.032305
O	      2.05937      2.08393      2.16832         0.020485     -0.115086     -0.011648
O	      3.87858      4.22959      2.27386         0.174590     -0.028421      0.229316
O	      4.05611      2.25260      4.23883         0.053095      0.069203      0.021700
O	      6.07848      4.26464      4.14470         0.022526      0.378274      0.077363
O	      6.21289      1.97478      6.25113        -0.141039      0.037274      0.084239
O	      8.21290      4.08929      6.52800        -0.128728      0.134910      0.022048
O	      2.06098      4.19352      4.15575        -0.034787     -0.254800      0.122744
O	      4.15929      6.19741      4.22480        -0.272243     -0.107564     -0.017983
O	      3.98870      4.24074      6.20685         0.045974     -0.001981     -0.226196
O	      6.11013      6.49966      6.30594         0.017766     -0.084514     -0.240003
O	      6.32708      4.04991      8.43598         0.006740     -0.098001      0.004449
O	      8.09184      6.08029      8.38386         0.122596      0.465399     -0.006431
O	      2.00787      6.41018      6.41148         0.197874     -0.127618     -0.076128
O	      4.09017      8.65672      6.26656         0.020374     -0.105064     -0.026351
O	      4.07899      6.39042      8.39960         0.106898      0.052424      0.007760
O	      6.14271      8.70037      8.34854        -0.057349      0.075160      0.112665
O	      6.09494      6.41971     10.33959         0.043542     -0.180052      0.053718
O	      8.15513      8.47898     10.57433         0.096427      0.019654     -0.103081
