# total energy = -215.38737272 eV
 
CRYSTAL
PRIMVEC
0.007568 6.278419 6.246535 
6.336424 -0.070621 6.325948 
4.164367 4.177939 0.012804 
PRIMCOORD
36 1
Li	      6.29695     10.24140      8.38145         0.021190     -0.020876     -0.009223
Li	      4.35523      8.33638      8.36326         0.079118     -0.018758      0.008704
Li	      6.23414      2.11364      4.08195        -0.050886      0.077592     -0.060655
Li	      4.24736      4.06113      4.32462         0.029692     -0.076322      0.110858
Li	      4.14180      2.19606      6.31716        -0.041592      0.015533      0.010409
Li	      6.40151      8.28782      6.43051         0.010411      0.004022      0.007174
Li	      4.28060      6.07214      6.45816        -0.029585     -0.029038      0.125010
Li	      4.11257      4.15747      8.27119        -0.050853     -0.004224     -0.011681
Li	      6.30707      6.40612      8.21723         0.018183      0.074347     -0.081823
Ti	      2.12994      8.30629      6.35045         0.114619     -0.367319      0.045068
Ti	      6.37410      4.14235     10.40366         0.019429     -0.012965     -0.012162
Fe	      4.19157      6.31386     10.28085        -0.042031      0.002707      0.304549
Fe	     10.40295      6.12062      8.41119         0.126490      0.160085      0.044364
Fe	      6.35836      6.22731      4.34190        -0.055398      0.020096     -0.225511
Co	     10.47941      4.11957      6.33639         0.098576     -0.028542      0.253284
Ni	      8.43709      4.13769      8.39051        -0.071656     -0.060140     -0.078971
Ni	      6.18070      4.19521      6.32161         0.277196     -0.142968      0.021897
Ni	      8.41915      6.21300     10.48356         0.021560     -0.011475      0.109518
O	      6.31753      8.32473      8.37377        -0.005062     -0.009226      0.014748
O	      2.02178      2.12469      2.02407        -0.049661     -0.090656     -0.091491
O	      4.13488      4.22663      1.93417         0.088036     -0.069691      0.176402
O	      4.14272      2.01001      4.17592         0.049506      0.086034      0.001844
O	      6.34939      4.21526      4.27545        -0.092877     -0.041812     -0.128936
O	      6.42890      1.95354      6.35087        -0.082574      0.324775      0.001762
O	      8.49008      4.00450      6.27943        -1.250538     -0.230718     -0.082709
O	      1.99040      4.14554      4.17156        -0.172720     -0.033676      0.040471
O	      4.20627      6.38823      4.13069         0.095154      0.096144     -0.063270
O	      4.23803      4.14315      6.30193         0.007906     -0.018381      0.024072
O	      6.28224      6.20062      6.23066        -0.035271      0.064393      0.190748
O	      6.35320      4.07107      8.48339        -0.091911     -0.058036      0.171126
O	      8.47712      6.15402      8.47627        -0.051093      0.089091     -0.121124
O	      1.95259      6.39371      6.19818         1.137532      0.606165      0.025307
O	      4.08089      8.48940      6.18919        -0.102505     -0.225426     -0.104770
O	      4.23775      6.23312      8.45425         0.017593     -0.026005     -0.317420
O	      6.31554      6.12268     10.61502        -0.053426     -0.123453     -0.306422
O	      8.54325      8.32047     10.60952         0.117451      0.078723      0.008856
