# total energy = -218.15684840 eV
 
CRYSTAL
PRIMVEC
-0.005886 6.348833 6.113588 
6.437762 -0.011232 6.118480 
4.271407 4.215871 0.012708 
PRIMCOORD
36 1
Li	      4.35150      4.22694      0.11452        -0.040982     -0.033314     -0.051726
Li	      2.07925      2.08014      0.19013        -0.020283      0.085905     -0.152158
Li	      2.02776      0.16397      1.98330        -0.074878     -0.078532      0.036938
Li	      4.03735      2.25359      1.95696         0.084808      0.059069     -0.006553
Li	      0.13582      2.07513      2.01936        -0.115822      0.062396      0.024446
Li	      2.16804      4.07262      2.02483        -0.006774      0.116494     -0.040675
Li	      6.48102      4.17989      6.17865         0.066263     -0.065244      0.087219
Li	      2.24480      6.19487      4.03808         0.011547      0.030580     -0.096169
Li	      6.46581      6.31332      8.12490        -0.013610     -0.101929      0.102368
Ti	      8.50452      4.21166      4.08385         0.281453     -0.279869     -0.021871
Ti	      6.43195      8.39420     10.18914         0.106346     -0.352131      0.076108
Fe	      8.53553      6.28300      6.22523         0.264443      0.020536      0.103810
Fe	      4.13228      6.39307      6.15016         0.405695      0.203198      0.143616
Fe	      4.34084      4.18343      8.10070         0.585412      0.053880      0.183251
Co	      4.28906      4.26157      4.01818        -0.006330      0.104968     -0.127935
Co	      0.11068      4.24958      4.06241        -0.357725      0.439462      0.101023
Cu	      6.36104      8.45909      6.19947        -0.054130      0.023343     -0.174509
Ni	      2.10480      2.15921      3.99649         0.029824     -0.092620      0.091360
O	      2.12547      2.11831      2.05538         0.021310     -0.038581     -0.143091
O	      4.24456      4.24275      2.21939         0.020454     -0.069280     -0.082683
O	      4.39068      2.05195      4.04562        -0.055801      0.116873      0.037366
O	      6.53531      4.10445      4.06072         0.015517      0.069183     -0.010144
O	      6.33782      2.08463      5.96778         0.007446     -0.001721     -0.092315
O	      8.49960      4.32420      5.98758        -0.057890     -0.013896     -0.064750
O	      2.11695      4.20428      4.14509         0.239772      0.023673      0.227507
O	      4.32707      6.30161      4.17044        -0.049652     -0.371973      0.051622
O	      4.45365      4.23007      6.04793        -0.079589      0.015266      0.008004
O	      6.50533      6.45795      6.08309        -0.181351     -0.019999     -0.022633
O	      6.33989      4.24013      8.35194        -0.092754     -0.120193     -0.545259
O	      8.57916      6.45119      8.12554        -0.072617     -0.185497     -0.058873
O	      2.22197      6.19943      6.12882        -0.415651      0.022328      0.020176
O	      4.14276      8.38010      5.96202         0.181142     -0.240370      0.449090
O	      4.33027      6.24520      8.17659        -0.106347      0.145141     -0.032473
O	      6.56487      8.41231      8.23716        -0.199485      0.045771     -0.072546
O	      6.25949      6.41672     10.20515        -0.154133      0.276377     -0.014233
O	      8.44501      8.57003     10.19042        -0.165629      0.150708      0.066691
