# total energy = -44.86318930 eV
 
CRYSTAL
PRIMVEC
-0.000606 1.961594 1.963755 
1.949047 2.000839 -3.967368 
-3.923031 1.997215 -1.998200 
PRIMCOORD
8 1
Li	     -1.83717      3.70770     -1.84269         0.109728      0.968616     -0.510137
Li	     -0.03936      1.95795     -1.95779         0.496563     -0.239875     -0.173999
Mn	      0.00007      0.00139      0.00055         0.886469     -4.949907      3.146432
Ni	     -1.86362      1.88204     -0.01593        -2.172884     -0.442545      1.658378
O	     -1.88025      3.89644     -3.90038        -1.056449      1.453711     -1.820899
O	     -1.97866      1.88292     -1.88035        -0.605377      0.465667     -1.947515
O	      0.10312      3.78205     -1.92051         0.413011      0.640180     -0.057568
O	      0.00460      1.76819      0.09937         1.928941      2.104154     -0.294692
