# total energy = -219.67953841 eV
 
CRYSTAL
PRIMVEC
0.034555 6.259345 6.187412 
6.345553 0.045942 6.175451 
4.239702 4.174267 0.021938 
PRIMCOORD
36 1
Li	     10.48485      4.23159      6.24874         0.016175      0.016108      0.037785
Li	      8.47537      2.22834      6.22522        -0.046415      0.060562     -0.003916
Li	      4.17924      2.13547      2.01974        -0.058158     -0.025584     -0.171121
Li	      8.39785      4.27964      4.21259        -0.096872     -0.049873      0.035343
Li	      6.37690      2.14638      8.11643         0.091927     -0.031044     -0.060057
Li	      2.26983      2.06734      4.13879         0.020178     -0.001719     -0.047779
Li	      4.24427      4.11105      4.14006        -0.007613      0.049304     -0.073875
Li	      6.41261      4.19367      6.21752         0.039313     -0.031943      0.054350
Li	      6.40214      8.29824      6.26274        -0.053956      0.002357      0.026746
Ti	      6.22891      4.29445      2.13325        -0.360196      0.524061      0.058409
Ti	      2.18741      6.21542      4.18344         0.162724     -0.179190      0.235921
Fe	      6.22307      2.15950      4.21099         0.269253     -0.010492      0.152621
Fe	      4.24778      8.35425      4.17652         0.074698     -0.034883     -0.039583
Fe	      4.41159      6.22607      6.20926         0.007496      0.042227     -0.074365
Co	      8.50080      6.30102      6.23161        -0.033826     -0.174062     -0.056268
Co	      4.24066      4.21311      8.23174         0.051845     -0.028186      0.060286
Cu	      2.21401      4.11337      1.98397        -0.035015     -0.172633      0.101459
Cu	      6.37608      6.30787      8.22416        -0.130768      0.041151     -0.040945
O	      2.12594      1.97573      2.04041        -0.048019     -0.514807      0.059186
O	      4.37413      4.12038      2.04713         0.519775     -0.007606      0.036199
O	      4.27723      2.09975      4.27974        -0.167720     -0.004958      0.024232
O	      6.35517      4.14472      4.02447        -0.006934      0.040617     -0.190970
O	      6.20243      2.14037      6.12874         1.108705      0.081232     -0.084604
O	      8.47502      4.36332      6.28888        -0.054908     -0.407783     -0.176527
O	      2.06418      4.28675      3.94539         0.045387      0.182446      0.216112
O	      4.15283      6.29034      4.18736        -0.195055     -0.018923     -0.092846
O	      4.25216      4.16688      6.29855        -0.083243      0.419902      0.073323
O	      6.42154      6.28959      6.25648        -0.675746      0.008663     -0.047014
O	      6.19234      4.30534      8.34045        -0.265907     -0.006824     -0.141189
O	      8.60505      6.45409      8.25358         0.051991      0.198726     -0.008905
O	      2.18176      6.23469      6.07473         0.000197     -0.086731     -0.158706
O	      4.28699      8.23003      6.10267        -0.013125      0.085226      0.061024
O	      4.08164      6.14896      8.16118        -0.128664      0.019087      0.143074
O	      6.50609      8.37822      8.32366         0.030469      0.015993     -0.023603
O	      6.49742      6.30996     10.24028         0.009815      0.037380      0.188027
O	      8.48722      8.29943     10.23661        -0.037810     -0.037799     -0.071823
