# total energy = -219.28423245 eV
 
CRYSTAL
PRIMVEC
0.004693 6.145989 6.349929 
6.116218 -0.000266 6.354993 
4.099625 4.122864 -0.022434 
PRIMCOORD
36 1
Li	      0.03043      6.12326      6.32959        -0.015477     -0.019509     -0.042040
Li	      6.12678      4.06602      2.19493        -0.000886      0.041691      0.016067
Li	      4.09416      6.14742     10.48870         0.029404     -0.011702     -0.028899
Li	      4.09277      6.12967      2.16459         0.027242     -0.039851      0.042822
Li	      4.09233      4.15028      4.11789         0.003430      0.014957     -0.015151
Li	      6.14379      4.09744      6.33093         0.000684      0.030174     -0.032784
Li	      6.15165      4.16794     10.55242        -0.002392      0.034489      0.034520
Li	      6.08381      8.28329      6.36370        -0.027487      0.008973      0.051145
Li	      6.11052      6.17083      8.55849         0.012213     -0.004867      0.003827
Ti	      8.13453      2.11096      6.36808         0.033821      0.075977      0.059047
Ti	      4.02485      2.12879      6.33949        -0.191900      0.176891     -0.103262
Fe	      6.13157      8.26045     10.47016        -0.009939     -0.065615      0.137352
Fe	      1.98925      4.13078      2.19675         0.029768     -0.045327     -0.179922
Fe	      4.13374      6.13027      6.35549         0.096392     -0.063945     -0.164103
Co	      6.07781      6.07963      4.17887        -0.043712     -0.042402      0.021364
Co	      2.06560      6.15164      4.21999         0.030477      0.054277      0.097723
Ni	      4.12000      8.18838      8.43557        -0.018783      0.038756      0.088206
Ni	      4.14860      4.13264      8.51186         0.100585     -0.025444      0.048408
O	      2.01088      2.04324      1.97070        -0.056962     -0.076488     -0.070146
O	      3.87814      4.04029      2.12949         0.253964      0.047090     -0.032430
O	      4.09200      2.01645      4.38384        -0.021687      0.000459      0.180380
O	      6.14157      4.06974      4.19239         0.032934      0.107254      0.022092
O	      6.13354      2.05426      6.28506        -0.043507      0.005648      0.000931
O	      8.16874      4.08830      6.40447        -0.005394     -0.007730     -0.002070
O	      2.02591      4.18464      4.13879         0.046622      0.032667      0.205599
O	      4.04323      6.13227      4.35357         0.018307      0.012300     -0.040839
O	      4.09520      4.01931      6.44302        -0.019012     -0.274423     -0.140357
O	      6.21354      6.17423      6.29632         0.260256      0.043334     -0.003454
O	      6.23991      4.10183      8.49682        -0.308378     -0.002809     -0.045382
O	      8.21747      6.15877      8.42248        -0.041181      0.050600      0.052382
O	      2.08498      6.23854      6.17338        -0.059140     -0.043464     -0.123948
O	      3.98262      8.15950      6.37031        -0.099053      0.050085     -0.106299
O	      4.11504      6.13985      8.32173        -0.017900      0.010343      0.119497
O	      6.15118      8.24400      8.51736         0.055257     -0.015047     -0.139290
O	      6.27630      6.26298     10.56950        -0.019156     -0.018499      0.015935
O	      8.18587      8.14148     10.64419        -0.029411     -0.078840      0.073079
