# total energy = -221.46234865 eV
 
CRYSTAL
PRIMVEC
0.014594 6.220966 6.226281 
6.342078 0.020542 6.220586 
4.238298 4.154116 0.003097 
PRIMCOORD
36 1
Li	      4.23178      2.07865      2.14589         0.069335      0.082115     -0.009852
Li	      8.34894      4.15517      4.11690         0.022455     -0.010463      0.011089
Li	      6.34670      2.14471      4.12950        -0.020143     -0.062224      0.007586
Li	      0.03870      2.05463      2.05300        -0.057277     -0.052218     -0.006465
Li	      2.15135      2.02441      4.08248         0.006798      0.005625      0.019527
Li	      4.28751      4.15278      4.13528         0.026765     -0.029050     -0.046933
Li	      6.35122      4.16772     10.33001        -0.007566      0.046478      0.070697
Li	      2.14092      4.19122      6.25900        -0.031348      0.029805      0.023187
Li	      4.22913      4.20431      8.31165        -0.021146     -0.030494      0.031624
Ti	      8.52851      6.25172     10.31836        -0.127996      0.028685     -0.048250
Ti	      4.36956      6.23543      6.22914         0.041988      0.127820     -0.166850
Fe	      8.43252      2.09290      6.21750         0.023014      0.000569     -0.097634
Fe	      2.12552      4.06881      2.14180         0.244546      0.105316     -0.014555
Fe	      6.30798      6.34563      8.38957         0.058842      0.056580      0.244839
Co	      4.27888      2.17929      6.04417         0.077392      0.034236      0.041588
Co	      4.22981     10.30714      6.21674        -0.023510      0.095317     -0.157336
Co	      6.28418      4.08684      2.22205         0.004293     -0.155773     -0.233722
Cu	      6.36452      4.15649      6.14560        -0.156073     -0.055997      0.007543
O	      2.06105      2.07871      2.01138         0.001143     -0.165688      0.085760
O	      4.15083      4.11333      1.94989         0.068031     -0.028328     -0.121028
O	      4.18497      2.08196      4.30477        -0.051907     -0.015749     -0.025789
O	      6.35154      4.15831      4.15488        -0.055223      0.056160      0.212366
O	      6.32182      1.95664      6.22836        -0.011586      0.146269      0.096163
O	      8.38076      4.14876      6.26243         0.581687      0.045026     -0.022137
O	      2.15121      4.27772      4.08430         0.009707      0.064396      0.057446
O	      4.13424      6.23878      4.26513        -0.052813     -0.058544      0.129556
O	      4.35116      4.22943      6.23516        -0.199671      0.127257     -0.003466
O	      6.29900      6.36605      6.28689        -0.147873     -0.227841     -0.175505
O	      6.46835      4.32489      8.22536        -0.038984     -0.196714     -0.104953
O	      8.45743      6.24652      8.34062        -0.109947     -0.008256      0.097443
O	      2.23672      6.22229      6.19920        -0.270949     -0.033472     -0.045106
O	      4.13861      8.23001      6.20842         0.074808     -0.153282      0.076883
O	      4.28210      6.22290      8.18541        -0.118368      0.033590      0.071739
O	      6.34808      8.25535      8.34975        -0.029186      0.393177     -0.129905
O	      6.48006      6.21686     10.39472         0.200157     -0.111292      0.204728
O	      8.47716      8.18178     10.46679         0.020605     -0.083039     -0.080278
