# total energy = -222.53983876 eV
 
CRYSTAL
PRIMVEC
-0.003547 6.204698 6.343623 
6.219324 0.009349 6.330600 
4.166839 4.148603 -0.014688 
PRIMCOORD
36 1
Li	      4.19045      8.23606      8.46085         0.016565     -0.055613     -0.011363
Li	      4.14240      6.18504     10.52434        -0.046847     -0.025374     -0.080004
Li	      8.26507      4.20360      8.47415        -0.075211      0.069679     -0.025004
Li	      4.15476      4.17417      4.20395         0.070188      0.001580     -0.050373
Li	      6.22229      4.19330      6.36172         0.024739      0.030270      0.125517
Li	      6.19893      4.15725     10.49286        -0.069014      0.018773     -0.028251
Li	      2.07835      6.15661      4.19371         0.010906     -0.002747     -0.042838
Li	      6.26190      8.26723      6.33385        -0.015555     -0.002505      0.060037
Li	      8.31951      8.29311      8.47463        -0.008754      0.107072      0.017214
Ti	      4.13419     10.24358      6.31519        -0.157642     -0.263595     -0.009412
Ti	      2.12269      2.20588      4.22196         0.112565      0.121706      0.210820
Fe	      8.28273      8.30334     12.61611         0.083868      0.091892      0.008406
Fe	      6.21996      8.32047     10.47636        -0.048653      0.077544      0.110967
Fe	     10.29838      6.34702      8.51737        -0.070634     -0.094588     -0.009968
Co	      4.10815      2.27872      6.36115        -0.067025      0.137728      0.027022
Co	      2.16615      6.16475      8.48608        -0.955933      0.277198     -0.399993
Co	      6.21699      6.13416      8.48451        -0.172278      0.032530      0.066113
Ni	      4.14123      6.15804      6.30275         0.015779      0.012871      0.170382
O	      2.03489      2.04906      2.15588         0.117998     -0.725037     -0.004140
O	      4.30762      4.24263      1.94201         0.351037     -0.045604      0.077485
O	      4.10896      2.05137      4.27694        -0.070842      0.027445      0.057613
O	      6.23623      4.13468      4.10891         0.131115      0.037478     -0.682754
O	      6.23145      2.03943      6.34736        -0.017145      0.001277     -0.035594
O	      8.44446      4.15819      6.36449         0.213210     -0.063816      0.088939
O	      2.10685      4.01383      4.21400         0.019000     -0.281016     -0.083744
O	      4.27988      6.19941      4.18912         0.043129      0.014165     -0.106877
O	      4.14217      4.06804      6.31341         0.009754     -0.226734     -0.056427
O	      6.24317      6.17734      6.19098         0.114617      0.040589     -0.002408
O	      6.20050      4.11421      8.44841         0.076438      0.041451     -0.012597
O	      8.31540      6.20369      8.36592         0.017836     -0.030925     -0.060545
O	      2.03945      6.25321      6.39016         0.020581     -0.105289      0.766444
O	      4.08928      8.33782      6.34018         0.062418      0.286825     -0.039684
O	      4.06184      6.19216      8.34664         0.173660     -0.049547      0.095253
O	      6.20365      8.25335      8.53652         0.070899      0.593180     -0.148107
O	      6.23500      6.27649     10.71332        -0.011079      0.004987      0.027966
O	      8.20742      8.28966     10.69466         0.030309     -0.053851     -0.020094
