# total energy = -219.80382823 eV
 
CRYSTAL
PRIMVEC
0.034736 6.341036 6.175205 
6.340447 -0.005113 6.214729 
4.210205 4.236961 0.013213 
PRIMCOORD
36 1
Li	      6.36233      8.47769     10.29441         0.031470      0.020899      0.015358
Li	     10.38698      6.51324      8.36881        -0.093240      0.025849     -0.026366
Li	      8.31055      4.38193      8.37369         0.015931      0.068257     -0.000869
Li	      2.12274      2.12400      4.04784        -0.023764      0.024023     -0.068418
Li	      8.47968      6.37117      6.37403         0.043987      0.016304      0.020601
Li	      6.30511      4.20646      6.37694        -0.002319     -0.073190     -0.027526
Li	      6.30988      4.19716     10.12424        -0.035645     -0.015268      0.115034
Li	      8.53615      6.34640     10.12176         0.016467     -0.014095      0.111793
Li	      8.63955      8.29382      8.39299         0.030604      0.012727      0.056657
Ti	      6.28947      0.13642      6.20405        -0.189864      0.505503     -0.078248
Ti	      6.38900      8.33119      6.13656         0.173874     -0.360252     -0.324313
Fe	      8.40728      2.17032      6.20180        -0.051108      0.028084      0.016166
Fe	      6.29251      4.24967      2.16513         0.079783     -0.033682      0.010956
Fe	      4.19831      0.02842      4.10072        -0.062747      0.071083      0.094012
Fe	      4.26388      6.28863      6.13952         0.023495     -0.048054      0.003840
Co	      4.23526      4.21666      4.11646        -0.038315      0.062114      0.002244
Cu	      4.22351      2.12922      2.11566        -0.022491      0.020692      0.040961
Ni	      6.47522      6.19826      8.32994        -0.105278      0.127226      0.006389
O	      2.26818      2.00022      1.94126        -0.038886      0.013604      0.050189
O	      4.29213      4.32664      2.07259        -0.031421      0.073583     -0.098325
O	      4.22378      2.12955      4.09038         0.016952      0.031859      0.113210
O	      6.28506      4.23209      4.11861        -0.013443     -0.012260      0.049468
O	      6.42526      1.98464      6.23332        -0.074406     -0.432027     -0.023198
O	      8.57732      4.18873      6.19417         0.225235      0.084994      0.043932
O	      2.28658      4.21186      4.22546         0.047750     -0.008748      0.207720
O	      4.24351      6.15842      4.23680        -0.008351     -0.066516     -0.158244
O	      4.14337      4.26108      6.04931        -0.195511     -0.084051     -0.018646
O	      6.24778      6.45855      6.23324         0.032695      0.269314     -0.024448
O	      6.37449      4.23489      8.26215        -0.016846     -0.117647      0.046689
O	      8.40309      6.39069      8.26360         0.142503      0.013151      0.046875
O	      2.08738      6.31227      6.20388        -0.025958     -0.045581     -0.020819
O	      4.31670      8.45273      6.17152         0.023532      0.030312     -0.175248
O	      4.18384      6.20424      8.23450        -0.019056     -0.145986     -0.085710
O	      6.26204      8.54818      8.11564         0.104503     -0.014530      0.005189
O	      6.28161      6.36951     10.46442         0.030125      0.005689      0.181520
O	      8.46447      8.60805     10.46168         0.009741     -0.033380     -0.108427
