# total energy = -221.41203741 eV
 
CRYSTAL
PRIMVEC
0.052673 6.179703 6.388304 
6.187846 0.043440 6.397995 
4.149250 4.151651 0.004125 
PRIMCOORD
36 1
Li	      4.18692     10.29142      6.41506        -0.002541      0.036470     -0.004642
Li	      2.20049      8.26540      6.35678        -0.007578     -0.001018     -0.072058
Li	      2.13139      6.19814      8.49357         0.039373      0.009126      0.007988
Li	      8.34793     10.33665     10.68459         0.021645     -0.017432     -0.003577
Li	      4.07310      4.11843      4.21640        -0.020687     -0.004402     -0.034447
Li	      6.26782      4.14544      6.43508        -0.004919     -0.044987     -0.024988
Li	      6.20950      4.22455     10.69662        -0.013162      0.027294      0.006239
Li	      4.10397      6.25593      6.43589         0.015663      0.028156      0.016078
Li	      6.23089      6.21025      8.58904         0.040720      0.032287      0.027544
Ti	      6.26762      8.22969     10.69413         0.109344     -0.110002      0.265255
Ti	      6.01471      6.03868      4.28222        -0.327624     -0.182397     -0.001745
Fe	      4.18615      8.27524      8.45526        -0.076804     -0.150304      0.082524
Fe	      8.29206      6.16624      6.43904         0.079072      0.175379      0.021568
Fe	      2.06600      4.23650      6.32130        -0.020719     -0.053817      0.093410
Fe	      4.29392      4.28889      8.49510        -0.154446     -0.020734      0.056924
Co	      2.14065      6.20713      4.25712         0.007896     -0.004787      0.096435
Cu	      0.04632      1.98640      2.07598         0.113113     -0.049023      0.002210
Cu	      8.22543      4.16728      8.49360        -0.046521     -0.029546     -0.074782
O	      2.10495      1.96366      2.31233         0.033732     -0.127319      0.086462
O	      4.02808      4.13064      2.13343         0.124416     -0.019028      0.050882
O	      4.19644      2.06208      4.24038        -0.073974      0.013322     -0.042876
O	      6.19448      4.19018      4.29609        -0.057465      0.143487     -0.014365
O	      6.14122      2.14119      6.17525         0.069581     -0.023936     -0.336786
O	      8.26836      4.28091      6.47365        -0.005586     -0.203069     -0.098070
O	      2.06579      4.20398      4.28890        -0.002124      0.019658      0.002103
O	      4.16776      6.18444      4.36024         0.328349     -0.024401      0.092462
O	      4.06635      4.05651      6.52939         0.084317      0.034351     -0.100288
O	      6.30306      6.30109      6.18872        -0.075217     -0.050024     -0.029254
O	      6.24604      4.05899      8.51453         0.053167      0.109881     -0.008397
O	      8.37444      6.38394      8.61645        -0.068081      0.100417      0.054433
O	      2.11244      6.16860      6.17287        -0.022623      0.111821      0.007973
O	      4.24558      8.26958      6.51867        -0.058127      0.026493     -0.080827
O	      4.23837      6.20929      8.54816        -0.040027      0.138892     -0.027800
O	      6.22140      8.35759      8.58465         0.107367     -0.045855      0.017707
O	      6.40248      6.33479     10.61037        -0.098493      0.168484     -0.037968
O	      8.24927      8.22638     10.59159        -0.051037     -0.013439      0.004673
