# total energy = -222.87347791 eV
 
CRYSTAL
PRIMVEC
0.038601 6.257337 6.291891 
6.279231 0.046647 6.283997 
4.184997 4.165153 0.032227 
PRIMCOORD
36 1
Li	      0.13649      6.28317      6.30233        -0.015867     -0.009649      0.041825
Li	      2.14395      8.15548      6.34384        -0.010368     -0.068199     -0.002110
Li	      2.20679      6.34815      8.28686         0.018609      0.040559      0.044929
Li	      4.16616      8.28655      8.33030        -0.027646      0.017119     -0.038419
Li	      6.29291      2.11962      8.26190         0.024108     -0.023700     -0.097461
Li	      2.15419      2.09648      4.22791         0.032297      0.000352      0.032642
Li	      6.28522      4.18730      6.29298        -0.005293     -0.008040     -0.026621
Li	      2.10499      6.27086      4.32101        -0.002971      0.019440      0.066065
Li	      4.10612      6.34067      6.39152        -0.024928      0.003584      0.026853
Ti	      2.12961      4.03935      2.00566         0.158311     -0.587019     -0.170607
Ti	      4.27374      4.33778      4.18065         0.145691      0.214967     -0.164901
Fe	      6.29795      2.08132      4.30016         0.007816      0.024411     -0.137300
Fe	      4.16767      8.29548      4.30511         0.031201     -0.067062      0.009535
Fe	      2.07205      4.31177      6.33419        -0.019745     -0.149348     -0.001449
Fe	      6.25580      6.30451      8.35006         0.017062     -0.033410      0.030335
Co	      4.20369      2.12380      6.28605         0.039321      0.000021     -0.065578
Ni	      8.32697      4.22021      4.22472        -0.072495      0.068323      0.092486
Ni	      4.23046      4.19137      8.36919         0.039735     -0.017983     -0.060511
O	      2.09567      2.22305      2.03500        -0.002327      0.523684      0.037624
O	      4.06350      4.16927      2.27278        -0.132421      0.037612      0.115864
O	      4.24440      2.14845      4.32450        -0.064824      0.102658      0.049237
O	      6.18697      4.14689      4.18913        -0.201617      0.056074      0.013045
O	      6.16428      2.11598      6.21757        -0.087773      0.025228      0.113762
O	      8.36080      4.34338      6.38428        -0.013537      0.046285      0.161935
O	      2.14329      4.19078      4.14675         0.018045     -0.002434     -0.024275
O	      4.22666      6.19249      4.23902        -0.003656     -0.174254     -0.024245
O	      4.15265      4.08335      6.21016         0.069789     -0.026085     -0.077741
O	      6.43499      6.35233      6.36841         0.037710     -0.009458     -0.059487
O	      6.37529      4.23481      8.50355         0.099856     -0.009531     -0.057276
O	      8.35121      6.27460      8.26359         0.015329     -0.105323     -0.000587
O	      2.12137      6.17999      6.32848         0.019163      0.110618     -0.031377
O	      4.28616      8.32276      6.21099        -0.064824      0.014435      0.105933
O	      4.28798      6.23182      8.42477        -0.040400      0.113709     -0.072481
O	      6.33742      8.31126      8.44235        -0.093885      0.025152      0.062298
O	      6.27621      6.28174     10.42210         0.117004     -0.017740      0.012594
O	      8.40497      8.39880     10.49152        -0.006470     -0.134996      0.095463
