# total energy = -223.85274529 eV
 
CRYSTAL
PRIMVEC
-0.028894 6.482709 6.195150 
6.257979 -0.014398 6.180117 
4.159930 4.299524 0.002760 
PRIMCOORD
36 1
Li	      4.18308     10.70695      6.24207        -0.016951     -0.054895      0.057384
Li	      6.19940     10.70553      8.20131        -0.022791      0.049932      0.038178
Li	      0.03590      2.23629      2.11666         0.039593      0.014623      0.065915
Li	      2.03315      4.24551      2.12023         0.031396     -0.042974      0.104657
Li	      0.03447      4.27728      4.04864         0.099563     -0.034160     -0.009143
Li	      2.02203      4.39446      6.21544         0.008572     -0.047973     -0.120651
Li	      4.08447      6.56055      6.17585         0.061279      0.036322     -0.048882
Li	      4.12015      4.36813      8.23557         0.007267      0.014793     -0.015869
Li	      6.19906      6.45289      8.24364         0.004834     -0.010863      0.000632
Ti	      4.28383      6.43788     10.22256         0.065195     -0.161606     -0.196154
Ti	      8.32773      6.45247      6.41013        -0.115683      0.108818      0.284842
Fe	      2.07254      8.47061      6.24548        -0.054552      0.206496      0.203384
Fe	      4.22044      8.67433      8.16358        -0.244153      0.062491     -0.013191
Fe	      4.14019      4.36460      4.06519        -0.257405      0.074493      0.001006
Fe	      6.23561      4.33324      6.36054        -0.017933      0.037459     -0.188783
Co	      2.01656      2.21690      4.06680         0.391811     -0.607377      0.435195
Co	      6.24093      8.63697     10.23158         0.100790      0.016775     -0.039149
Cu	      8.30549      6.41347     10.25544        -0.065990     -0.020058     -0.079238
O	      2.12051      2.11069      2.05764         0.033488      0.094978      0.196035
O	      4.16510      4.17960      2.15238         0.073826     -0.070493     -0.125400
O	      4.12589      2.08777      4.15744        -0.524693      0.004710     -0.017467
O	      6.26067      4.38862      4.20220         0.028213      0.326872      0.004172
O	      6.20968      2.21633      6.16072         0.017347      0.032270     -0.103046
O	      8.30600      4.42970      6.11999         0.051859      0.103604     -0.098763
O	      2.12611      4.10327      4.17220         0.028234     -0.217571     -0.180366
O	      4.13935      6.33380      4.12623         0.440903     -0.039360      0.087712
O	      4.21458      4.10299      6.12570         0.027128     -0.179897      0.023366
O	      6.37537      6.38513      6.13158        -0.035853      0.018081     -0.494965
O	      6.23056      4.31868      8.19974        -0.062247      0.014575      0.159068
O	      8.31763      6.44022      8.23559        -0.007628      0.023993     -0.322479
O	      2.03454      6.57189      6.01120        -0.033889     -0.142481     -0.003472
O	      4.02868      8.62549      6.22897        -0.027981      0.005562     -0.033019
O	      4.12308      6.56411      8.37255         0.086121      0.006746      0.298107
O	      6.16594      8.65586      8.24069         0.097831     -0.003014      0.175028
O	      6.16478      6.53436     10.30596        -0.135793      0.064222     -0.012978
O	      8.29626      8.85211     10.40406        -0.071707      0.314905     -0.031666
