# total energy = -45.20922532 eV
 
CRYSTAL
PRIMVEC
-0.000609 1.971919 1.974091 
1.959305 2.011370 -3.988249 
-3.943678 2.007726 -2.008717 
PRIMCOORD
8 1
Li	     -1.85656      3.74684     -1.86214         0.113499      0.842540     -0.465557
Li	     -0.03977      1.97862     -1.97845         0.423487     -0.197396     -0.143876
Mn	      0.00007      0.00141      0.00055         0.789339     -4.358813      2.859397
Ni	     -1.88329      1.90191     -0.01610        -1.872500     -0.388510      1.404567
O	     -1.90009      3.93756     -3.94154        -0.949147      1.347547     -1.670058
O	     -1.99955      1.90280     -1.90020        -0.519648      0.452317     -1.682380
O	      0.10420      3.82196     -1.94078         0.363238      0.538248     -0.038593
O	      0.00465      1.78685      0.10042         1.651731      1.764066     -0.263500
