# total energy = -226.99489363 eV
 
CRYSTAL
PRIMVEC
0.009791 6.374080 6.298015 
6.309602 0.017671 6.290222 
4.212975 4.250786 0.005195 
PRIMCOORD
36 1
Li	      4.20891      0.11355      4.16884         0.040581      0.109174     -0.068364
Li	      6.23555      2.13158      4.20021         0.011872     -0.020116      0.062602
Li	      8.35945      4.31027      8.39306        -0.024491      0.030795     -0.021979
Li	      6.34683      6.33315      4.23271        -0.051764     -0.041996      0.010212
Li	      8.37994      6.35770      6.26386         0.019948      0.012079      0.024035
Li	      6.31883      4.36457      6.25357        -0.022187      0.057165     -0.050188
Li	      6.33431      4.26552     10.45665         0.004572     -0.030969     -0.034391
Li	      4.24642      6.34066      6.28284        -0.035346     -0.070763      0.008837
Li	      6.30542      6.33636      8.44299        -0.078323     -0.021542      0.092925
Ti	      8.36081      2.25372      6.22691        -0.459317      0.097578     -0.276631
Ti	      6.33804      8.29258      6.29312         0.205878     -0.460727     -0.122635
Fe	      6.30067      6.40376     12.51369         0.050329      0.209369      0.115247
Fe	      2.19194      0.01302      2.18210         0.173144     -0.046465     -0.036854
Fe	      4.27513      4.20033      4.20945        -0.054970      0.190477     -0.010486
Fe	      8.41030      6.37687     10.41676         0.055853      0.055177      0.092724
Co	      4.24953      8.45082      8.47825        -0.121990      0.204768      0.324888
Co	      4.35788      4.27376      8.40577        -0.044432      0.134348     -0.003627
Co	     10.51525      6.43116      8.42497        -0.104550      0.067726     -0.254777
O	      2.12248      2.05433      1.93933         0.134537      0.081654      0.064658
O	      4.28762      4.25860      2.08758        -0.050782      0.367477     -0.079849
O	      4.19866      2.24198      4.18061         0.032634     -0.188893     -0.239962
O	      6.24348      4.28231      4.14381         0.038143      0.008590      0.077128
O	      6.45076      2.08885      6.32545         0.287403     -0.006101     -0.222548
O	      8.48998      4.12929      6.29629        -0.061116     -0.171770      0.013977
O	      2.13240      4.31999      4.32859        -0.021183     -0.119814      0.129193
O	      4.11664      6.27371      4.16400        -0.008385     -0.064365      0.314876
O	      4.06606      4.25349      6.29025        -0.179173     -0.043206     -0.018307
O	      6.27579      6.50105      6.30609         0.045717      0.455123     -0.002640
O	      6.16692      4.25287      8.37347         0.119643     -0.335064      0.014432
O	      8.39592      6.45710      8.45615         0.232916     -0.057350     -0.112730
O	      2.05031      6.43037      6.30341         0.077011     -0.007828      0.040102
O	      4.24484      8.56516      6.34251         0.089734     -0.061332      0.082562
O	      4.15312      6.33188      8.42041        -0.041361     -0.267196     -0.021379
O	      6.41728      8.60162      8.26884        -0.278213     -0.096622     -0.072245
O	      6.40016      6.39489     10.58298        -0.033595     -0.008058     -0.012891
O	      8.44755      8.43235     10.59632         0.051261      0.038675      0.194087
