# total energy = -218.12414039 eV
 
CRYSTAL
PRIMVEC
0.001850 6.348582 6.155006 
6.326265 0.004563 6.152194 
4.209883 4.222922 0.010847 
PRIMCOORD
36 1
Li	      2.08870      2.12380      0.07911        -0.033575      0.036318      0.120501
Li	      2.10881      0.07913      2.08257        -0.014986      0.210107     -0.005062
Li	      4.13600      2.10184      2.10196        -0.192516      0.007845     -0.044367
Li	      4.27179      6.32289     10.18375         0.054053     -0.028549     -0.032140
Li	      0.07694      2.10925      2.10702         0.138085     -0.004995     -0.011554
Li	      2.09716      4.17305      2.11311         0.016218     -0.187622     -0.020144
Li	      6.35494      4.27115     10.18602         0.059770      0.049613     -0.020123
Li	      8.38793      6.34434     10.18898        -0.041872     -0.014244     -0.045018
Li	      6.33467      6.35987      8.31172        -0.007409     -0.015248      0.078570
Ti	      6.45516      4.21460      6.22695         0.250669     -0.125427      0.338966
Ti	      4.04669      6.51348      6.18398        -0.162457      0.180517      0.114020
Fe	      4.26226     10.53632      6.19319         0.013685     -0.102667      0.089639
Fe	      4.17794      4.24095      3.93156         0.029923      0.080693      0.017121
Fe	      8.41393      6.37118      6.21767         0.060653     -0.099297     -0.015351
Fe	      8.40355      8.44034      8.32907         0.269390     -0.000568     -0.138576
Cu	      6.33249      8.42598     10.19699         0.007895     -0.013698     -0.019228
Cu	      6.29917      8.46713      6.20332         0.061710      0.053020      0.122303
Ni	      2.09500      2.13569      3.97528         0.146339     -0.179817      0.415328
O	      2.10059      2.11787      2.07520         0.038184      0.002526     -0.190532
O	      4.20191      4.23213      1.98455        -0.012401      0.022109      0.002538
O	      4.27631      2.20656      4.15646        -0.037505     -0.124514     -0.092959
O	      6.22885      4.19575      4.18922         0.127473     -0.031489     -0.142118
O	      6.27433      2.16648      6.08189        -0.030573      0.143386      0.181326
O	      8.35654      4.31951      6.17110        -0.096253     -0.104194     -0.066077
O	      2.21502      4.17087      4.24165        -0.233572      0.108111     -0.255130
O	      4.24284      6.23691      4.24542        -0.120261      0.073751      0.037310
O	      4.32558      4.22920      6.14695        -0.048193      0.044059     -0.036658
O	      6.33199      6.18230      6.08732        -0.040036     -0.134009     -0.068826
O	      6.25638      4.21586      8.09008         0.050618      0.049155     -0.201867
O	      8.42687      6.43219      8.11953        -0.076276     -0.010505      0.187781
O	      2.16799      6.36783      6.16166         0.159907      0.101797     -0.001238
O	      4.20843      8.39399      6.14804        -0.038371     -0.137160     -0.017424
O	      4.26209      6.25170      8.03884         0.014056      0.032643     -0.138702
O	      6.40330      8.44417      8.17005        -0.356643      0.018641     -0.139887
O	      6.31013      6.37613     10.43080        -0.014353      0.083072     -0.184657
O	      8.32049      8.48274     10.21622         0.058623      0.016641      0.182236
