# total energy = -218.96462731 eV
 
CRYSTAL
PRIMVEC
0.015243 6.264109 6.297735 
6.214122 -0.003552 6.316091 
4.143398 4.189021 -0.002993 
PRIMCOORD
36 1
Li	      8.25232      2.13180      6.32687        -0.011129      0.076836      0.003341
Li	      2.14979      6.23680      8.39717        -0.044863     -0.046933     -0.028990
Li	      4.13343      6.25833     10.46762         0.017475      0.018438     -0.003342
Li	      6.30513      8.32542     10.48778        -0.012956     -0.019005      0.062982
Li	      8.28676      4.16636      8.32443         0.008408      0.024262     -0.024645
Li	      8.31128      6.24164      6.32844         0.030998      0.027229      0.016463
Li	      8.24068      6.31615     10.50772        -0.041419     -0.028248     -0.008590
Li	      8.22323      8.40851      8.45397        -0.009786      0.069188     -0.045776
Li	      6.24918      6.33715      8.41129         0.014046     -0.047303      0.037055
Ti	     10.23916      6.23315      8.37698        -0.376617      0.014585     -0.138974
Ti	      6.06119      4.29313     10.46269        -0.387504      0.318638     -0.075657
Fe	      4.06697      8.21187      8.41605         0.157481      0.197121     -0.059502
Fe	      4.19398      4.13373      4.21291        -0.030970     -0.002528     -0.060199
Fe	      6.37167      4.22909      6.29130        -0.151888     -0.047192      0.104583
Fe	      2.11333      4.19393      6.35074         0.010569     -0.221076     -0.017079
Ni	      6.16112      0.03041      6.29182        -0.013870      0.065263      0.013744
Ni	      4.11792      6.26600      6.34133        -0.054522      0.007382     -0.036645
Ni	      2.12176      2.05371      4.19081         0.009800      0.039352     -0.014486
O	      2.08716      2.10228      2.13191        -0.138862     -0.020760     -0.076251
O	      4.13733      4.26428      2.15640        -0.015615      0.008742      0.034174
O	      4.17920      2.17283      4.08946         0.114761     -0.096051      0.063515
O	      6.16486      4.19086      4.30768         0.095942     -0.074493     -0.051455
O	      6.25511      2.14856      6.45548        -0.060708      0.014808      0.127407
O	      8.24295      4.23545      6.30663         0.108432     -0.020641      0.020927
O	      2.09258      4.11573      4.41920         0.010693      0.118755     -0.274522
O	      4.18680      6.29568      4.14045        -0.099183     -0.007136     -0.049722
O	      4.19384      4.22205      6.24039         0.107110     -0.178061      0.032304
O	      6.20909      6.30284      6.28814         0.087144      0.028500      0.042526
O	      6.26962      4.08014      8.51558        -0.059742     -0.015653      0.043606
O	      8.42749      6.27661      8.43503         0.468445     -0.000067     -0.000793
O	      2.04140      6.08289      6.29238         0.009527      0.158648     -0.025050
O	      4.15508      8.35190      6.22522        -0.074002      0.008248      0.044021
O	      4.14171      6.32115      8.36619         0.000249     -0.140051      0.107136
O	      6.13138      8.34632      8.18820         0.008166      0.020253      0.341795
O	      6.23658      6.14233     10.53273        -0.048643     -0.288785     -0.100568
O	      8.40120      8.34320     10.51449         0.373033      0.037735     -0.003333
