# total energy = -225.91336413 eV
 
CRYSTAL
PRIMVEC
-0.016427 6.358311 6.138845 
6.393895 -0.011286 6.133279 
4.250213 4.223100 0.004906 
PRIMCOORD
36 1
Li	     10.59684      4.20035      6.15304         0.012081     -0.041584     -0.012916
Li	      2.15675      8.44181      6.15060         0.045905     -0.030869      0.009875
Li	      2.16050      6.36653      8.16070         0.025796     -0.004879      0.015615
Li	      4.13100      2.08866      2.05281        -0.037186     -0.030259      0.008861
Li	      6.36226      6.32624      4.07270         0.000979      0.030255      0.013851
Li	      6.45543      4.28242      6.12064         0.059351      0.034203     -0.030931
Li	      6.35248      4.34799     10.23684        -0.017209      0.051227     -0.014342
Li	      2.11006      6.32968      4.13237         0.012699     -0.024982      0.005668
Li	      6.32953      6.34825      8.20090        -0.041910      0.039435     -0.002643
Ti	      6.43516      2.01665      4.24073         0.188959     -0.179370      0.204033
Ti	      6.24440      8.47296      6.14896        -0.329283      0.032178      0.060663
Fe	      0.06143      2.13320      2.03403         0.076612     -0.018817     -0.103842
Fe	      8.47648      4.19287      8.15018        -0.001847      0.038751      0.101210
Fe	      4.31953      4.22511      4.03494        -0.003678     -0.098711      0.064164
Fe	      4.23459      6.37590      6.12707        -0.066127      0.048580      0.060946
Fe	      4.29681      4.23966      8.22943        -0.023956     -0.078510     -0.093206
Co	      8.47001      4.23451      4.09541        -0.001818      0.000628      0.154112
Cu	      8.44061      6.31834      6.13938        -0.005599      0.058264     -0.074147
O	      2.05936      2.23656      2.02785        -0.009867     -0.093310      0.019179
O	      4.15047      4.30768      2.06360         0.021851     -0.021013      0.022396
O	      4.38557      2.21112      4.11631        -0.026748     -0.252749     -0.159025
O	      6.34960      4.07282      4.07086         0.251796      0.000197      0.034489
O	      6.53058      2.09557      6.10302         0.144282     -0.008204     -0.304401
O	      8.47450      4.36905      6.17339         0.012988     -0.171278     -0.395375
O	      2.20854      4.23425      4.12728        -0.009391      0.051825      0.110976
O	      4.26721      6.21344      4.09399         0.018616      0.111479     -0.017187
O	      4.18233      4.19908      6.13958         0.020623      0.111915     -0.033161
O	      6.22064      6.48486      6.12036        -0.025594      0.032453     -0.001128
O	      6.38423      4.15555      8.22012        -0.043352      0.020747     -0.008120
O	      8.61576      6.36495      8.11653         0.013001     -0.025638      0.155920
O	      2.22940      6.17552      6.13916        -0.072794     -0.136425     -0.011004
O	      4.33810      8.40860      6.13402         0.220388      0.120452      0.008423
O	      4.24794      6.23501      8.14725         0.044326      0.052368      0.267839
O	      6.48686      8.41845      8.13719         0.004359      0.008754     -0.070242
O	      6.28249      6.49180     10.24431        -0.324882      0.108754     -0.016133
O	      8.39233      8.40006     10.19458        -0.133368      0.264130      0.029584
