# total energy = -225.49814140 eV
 
CRYSTAL
PRIMVEC
0.036720 6.228813 6.250309 
6.319249 0.015903 6.271473 
4.233149 4.187234 -0.009953 
PRIMCOORD
36 1
Li	      6.35648      6.25135     12.51520         0.005848     -0.020080     -0.007185
Li	      6.35077      4.19962      2.10833        -0.014567      0.020826     -0.003125
Li	      8.46717     10.39275     10.38987        -0.043494     -0.007702     -0.032324
Li	      6.37838      2.28753      8.38289         0.027344      0.010311      0.046980
Li	      8.28242      4.12756      8.40785         0.007355     -0.027139      0.077139
Li	      6.29156      6.23459      4.16190        -0.017311     -0.060915      0.039703
Li	      6.30999      4.18666      6.38843        -0.044789      0.010810     -0.015028
Li	      6.35071      4.16406     10.26216         0.022126      0.021389      0.056654
Li	      4.44434      4.23210      8.34150         0.015887      0.045319     -0.025459
Ti	      4.13033      2.10905      2.08443        -0.291964      0.101274     -0.063161
Ti	      8.48412      6.12537      6.40885         0.020971     -0.191513      0.262489
Fe	      8.36348      2.17322      6.28055         0.040620     -0.027784      0.045167
Fe	      6.39535      8.36941     10.37519         0.021764      0.018077     -0.017510
Fe	      4.30553      4.23710      4.13206        -0.089756     -0.005485      0.037151
Fe	      8.44872      6.26555     10.40365         0.145978     -0.026657     -0.114389
Fe	      2.15312      4.17563      6.26141        -0.051353      0.037823     -0.014966
Co	      4.26674      6.23622      6.26238         0.030753     -0.003214     -0.014247
Ni	      6.31628      6.14466      8.36295         0.079265      0.045100     -0.057765
O	      2.20221      2.07348      1.97175         0.202655     -0.014341      0.058648
O	      4.21949      4.01963      2.17093        -0.017143     -0.224525     -0.092274
O	      4.27335      2.08898      4.13551        -0.023113     -0.023874     -0.004826
O	      6.26292      4.11057      4.16027         0.066255      0.007707     -0.020034
O	      6.25918      2.08474      6.21076        -0.094374     -0.014783      0.003461
O	      8.45640      4.24839      6.23618         0.008121      0.195839      0.010116
O	      2.19600      4.24035      4.26322         0.008340     -0.035181     -0.024015
O	      4.19962      6.21094      4.26504        -0.009705      0.082428     -0.012152
O	      4.16486      4.06583      6.21942         0.065322     -0.032482      0.020946
O	      6.49498      6.33222      6.23619         0.172949     -0.048168     -0.073318
O	      6.34295      4.18161      8.35420         0.039951     -0.064587     -0.027123
O	      8.48534      6.24660      8.27713         0.086233      0.012325     -0.258630
O	      2.14740      6.26871      6.19497        -0.133643      0.016821      0.051709
O	      4.25455      8.33778      6.34055        -0.035254      0.018786      0.086863
O	      4.26519      6.33594      8.25125        -0.132074      0.080864      0.019539
O	      6.24537      8.29948      8.29322        -0.043837      0.087673      0.018490
O	      6.46839      6.35254     10.38705        -0.077648     -0.010327      0.131458
O	      8.41163      8.31897     10.53512         0.052287      0.025385     -0.088980
