# total energy = -222.73396729 eV
 
CRYSTAL
PRIMVEC
0.019656 6.260972 6.110787 
6.439071 0.008042 6.122440 
4.297209 4.186419 0.000456 
PRIMCOORD
36 1
Li	      6.43903      4.11362      2.11783        -0.006219     -0.049368     -0.031285
Li	      4.33568      2.09323      2.09082         0.021058     -0.013657      0.021344
Li	      8.55757     10.42330     10.13318        -0.057688     -0.001769     -0.034853
Li	      6.49702      8.40000     10.10593         0.036881      0.007812      0.038341
Li	      0.09186      2.09294      2.06680         0.089213     -0.015194     -0.020122
Li	      2.13853      4.14291      2.06677         0.004001      0.001489     -0.040758
Li	      6.42741      4.18784     10.11331        -0.051646     -0.010795     -0.044298
Li	      6.46501      8.37222      6.16088         0.002573     -0.002796      0.027948
Li	      8.50835      8.38312      8.25318        -0.051298      0.028876      0.017279
Ti	      6.42332      4.10747      6.15570        -0.056383     -0.092320      0.201608
Ti	      4.29520      6.33287      6.20242         0.040706      0.089221      0.383125
Fe	      4.27973      4.14100      0.04550        -0.026131      0.055368     -0.091329
Fe	      2.16072      2.09454      0.07486        -0.009323      0.013805     -0.133778
Fe	      4.28186      4.12976      3.94447         0.066199      0.056729     -0.115312
Fe	      8.62873      6.28900     10.10060        -0.014623     -0.049673      0.041254
Fe	      6.45202      6.41026      8.24800        -0.104536     -0.171280     -0.009868
Cu	      8.58376      6.25891      6.15967         0.062953     -0.005275      0.022552
Ni	      2.16758      2.13685      3.96785        -0.040218      0.012030     -0.050484
O	      2.14976      2.09114      1.96332         0.001532      0.033595      0.059855
O	      4.32449      4.17681      1.93609        -0.012564      0.033473      0.202287
O	      4.22159      2.18611      4.21739         0.099511     -0.151083     -0.090298
O	      6.35620      4.24353      4.16453         0.021084     -0.101083      0.108953
O	      6.52864      2.16019      6.13060         0.096236      0.079458     -0.023796
O	      8.56170      4.16312      6.06594        -0.023472     -0.006704      0.017280
O	      2.29039      4.23692      4.06370        -0.047475      0.064958      0.038288
O	      4.27081      6.21079      4.12546        -0.014214      0.021945      0.037930
O	      4.42928      4.27555      6.08130         0.030115      0.082197      0.011937
O	      6.26390      6.21471      6.09448        -0.228191     -0.008499      0.048271
O	      6.44858      4.30056      8.01053         0.035333     -0.071159     -0.198061
O	      8.49400      6.28515      8.12099         0.087184     -0.016877     -0.018654
O	      2.24360      6.26959      6.08761         0.058050     -0.028473     -0.001774
O	      4.26374      8.29307      6.10228         0.021262     -0.108780     -0.020702
O	      4.37068      6.25633      8.07008        -0.022163     -0.002378     -0.299861
O	      6.44410      8.26438      8.15627         0.005962      0.201465     -0.010596
O	      6.56544      6.22594     10.28184        -0.011559      0.017844     -0.008660
O	      8.63362      8.24467     10.29354        -0.002155      0.106898     -0.033764
