# total energy = -223.65247338 eV
 
CRYSTAL
PRIMVEC
-0.004582 6.194457 6.292700 
6.349953 -0.013671 6.301702 
4.226267 4.128455 -0.001916 
PRIMCOORD
36 1
Li	      4.25171      4.11825      0.06310         0.061536      0.011664      0.077632
Li	      6.28677      4.10173      2.07844        -0.065529     -0.067423      0.003822
Li	      4.22890      2.13263      2.09661         0.036748      0.022317      0.020805
Li	      8.44412      4.14326      4.23141         0.022495      0.008948     -0.031328
Li	      2.16829      4.10361      2.05337         0.017034      0.008157     -0.002837
Li	      8.47351      6.12042      6.25508         0.004377     -0.053639     -0.080420
Li	      6.35693      4.10783      6.25478        -0.039048     -0.038396     -0.079830
Li	      2.07314      6.20461      4.25703        -0.015171      0.063780      0.056111
Li	      2.11383      4.21174      6.27246         0.020261      0.043364      0.000192
Ti	      8.47117      2.16958      6.30031        -0.085725      0.164895     -0.154705
Ti	      6.40279      6.23523      8.30815        -0.003234      0.316161     -0.023320
Fe	     10.51930      6.12289      8.32051        -0.117008      0.128989     -0.097746
Fe	      2.15587      2.00115      4.15157         0.030037     -0.130725      0.024106
Fe	      4.20853      4.05536      4.18981        -0.046039     -0.026819      0.011963
Fe	      0.05496      4.21122      4.23386        -0.064706      0.063325      0.067003
Fe	      4.12264      6.14209      6.34372         0.104705      0.014419      0.036362
Cu	      6.33804      2.04950      4.23722        -0.001860      0.007286      0.040685
Cu	      4.23107      4.12004      8.38314        -0.137421      0.015973     -0.040817
O	      1.99573      2.06204      2.06689         0.048037      0.011815     -0.016044
O	      4.16889      4.22063      2.19258        -0.018955     -0.124073     -0.086981
O	      4.08188      2.08277      4.18384        -0.080578     -0.166254     -0.047711
O	      6.25892      4.11067      4.18470         0.036520      0.122432     -0.002192
O	      6.45484      2.02825      6.30778         0.008411      0.021721      0.120936
O	      8.48405      3.99879      6.32320         0.006793     -0.185056      0.005362
O	      2.05981      4.03150      4.21382         0.026206      0.131103     -0.030194
O	      4.30744      6.21501      4.16052        -0.104527      0.000820      0.044193
O	      4.19524      4.20809      6.14353        -0.000567     -0.120230     -0.011997
O	      6.28276      6.18228      6.38458         0.019804     -0.010385      0.012640
O	      6.28674      4.13753      8.48099         0.206444      0.007095     -0.073195
O	      8.42830      6.25702      8.34046        -0.005777     -0.192886     -0.019866
O	      2.19542      6.27291      6.33682        -0.097446      0.036096      0.008888
O	      4.15680      8.21472      6.27577         0.015573      0.060365      0.071179
O	      4.39572      6.11048      8.33370         0.087527      0.190165      0.134405
O	      6.39930      8.15393      8.51204        -0.050655     -0.196762     -0.161056
O	      6.39296      6.17876     10.34660         0.040268     -0.161732      0.035440
O	      8.62004      8.24432     10.66557         0.141466      0.023490      0.188513
