# total energy = -223.61081070 eV
 
CRYSTAL
PRIMVEC
-0.003076 6.334419 6.164716 
6.348859 -0.017212 6.178784 
4.216542 4.216308 0.004569 
PRIMCOORD
36 1
Li	      4.31008     10.45287      6.23295         0.000167      0.011671     -0.000754
Li	      2.27596      8.28955      6.22055         0.075896     -0.019475      0.008047
Li	      2.08814      6.41657      8.10803        -0.048809      0.065098      0.012600
Li	      4.18226      8.44457      8.09746        -0.010578      0.012369      0.039756
Li	      6.28301      4.17394      6.20412        -0.025372     -0.005087      0.009172
Li	      4.18745      8.36441      4.23267        -0.005685     -0.033953     -0.026546
Li	      2.17135      6.37752      4.19771         0.012366      0.045012     -0.015708
Li	      4.07725      6.43075      6.17203         0.038849      0.004855      0.012922
Li	      4.23532      4.19728      8.15024         0.005561      0.019598     -0.008781
Ti	      6.45944      8.41004     10.35955         0.365787     -0.102608      0.198737
Ti	      6.27692      6.25621      8.14504        -0.224962     -0.120049      0.009633
Fe	      8.47710      4.18776      4.19255         0.009159     -0.072513     -0.023014
Fe	      8.49387      4.19093      8.13160        -0.034730     -0.072931      0.026876
Fe	      6.28659      6.32439      4.09593         0.006698     -0.063665      0.052410
Fe	      4.20294      4.26296      4.14133         0.027163      0.002451     -0.099269
Fe	      1.99845      4.40614      6.21860         0.118010     -0.097244     -0.004453
Ni	      6.33410      2.12119      8.18805        -0.024132      0.079114     -0.062613
Ni	      4.22587      2.12423      6.19063         0.015956     -0.010873      0.008915
O	      2.06454      2.18763      2.11255         0.102489     -0.043581     -0.065157
O	      4.12725      4.27974      2.13161         0.062150     -0.091131     -0.027996
O	      4.21408      2.06994      4.10988         0.018316      0.029163     -0.137948
O	      6.33971      4.16563      4.07740        -0.000597     -0.033213     -0.016815
O	      6.28300      2.12553      6.06891         0.068272      0.045101     -0.300761
O	      8.45531      4.25813      6.14783        -0.044872     -0.047609      0.011662
O	      2.17594      4.11346      4.10527        -0.048561      0.054793     -0.044173
O	      4.31376      6.25548      4.08338        -0.058259      0.046336      0.104383
O	      4.13392      4.15809      6.08879         0.009439      0.085473      0.111602
O	      6.34742      6.33962      6.20777        -0.095231     -0.029088      0.105712
O	      6.42273      4.30163      8.23923        -0.049222      0.191361      0.016464
O	      8.39377      6.24384      8.25143        -0.126755      0.038792      0.131391
O	      2.12116      6.27866      6.18148         0.022948      0.154210      0.000857
O	      4.32399      8.44087      6.16200        -0.120450     -0.053314      0.011290
O	      4.40122      6.26952      8.34035         0.204716      0.006073     -0.089561
O	      6.36580      8.28161      8.28830         0.009772     -0.050253      0.075736
O	      6.28840      6.46639     10.21986         0.041913      0.109964     -0.035799
O	      8.32047      8.51408     10.31852        -0.297414     -0.054848      0.011183
