# total energy = -45.51178860 eV
 
CRYSTAL
PRIMVEC
-0.000613 1.982243 1.984426 
1.969563 2.021901 -4.009130 
-3.964326 2.018238 -2.019234 
PRIMCOORD
8 1
Li	     -1.87605      3.78617     -1.88169         0.115569      0.724220     -0.415049
Li	     -0.04019      1.99939     -1.99922         0.357104     -0.160890     -0.117028
Mn	      0.00007      0.00142      0.00056         0.691960     -3.793056      2.564875
Ni	     -1.90306      1.92187     -0.01627        -1.595793     -0.337689      1.172245
O	     -1.92004      3.97890     -3.98292        -0.841677      1.230552     -1.510268
O	     -2.02054      1.92277     -1.92014        -0.441015      0.430835     -1.439986
O	      0.10530      3.86209     -1.96115         0.318356      0.446127     -0.023605
O	      0.00470      1.80561      0.10147         1.395496      1.459900     -0.231185
