# total energy = -227.31859679 eV
 
CRYSTAL
PRIMVEC
0.020390 6.291763 6.252550 
6.344037 0.015977 6.257029 
4.239033 4.207186 0.000984 
PRIMCOORD
36 1
Li	      8.49096      2.15574      6.25556        -0.049469      0.044211      0.041781
Li	      6.37695     10.45892      8.35757        -0.017650      0.010623      0.022336
Li	      4.32250      8.38684      8.34367         0.100398     -0.008071      0.082578
Li	      6.30999      2.15478      4.14808        -0.051114      0.024854      0.006449
Li	      8.42861      4.22933      8.27881        -0.030834     -0.017311     -0.029641
Li	      8.45197      6.25977      6.25558         0.001601     -0.114680     -0.059347
Li	      6.39724      4.23335      6.25570         0.076214     -0.016635     -0.033276
Li	     10.58454      8.41228     10.41909         0.003493     -0.002857     -0.022193
Li	      6.35194      6.31430      8.29006        -0.001518     -0.009157     -0.087294
Ti	      8.36709      6.31491     10.44822        -0.099802     -0.023040      0.085064
Ti	      6.43037      2.19644      8.23409         0.265631      0.013127     -0.192079
Fe	      4.16285      4.11990      0.09213         0.094030      0.074573      0.107759
Fe	      8.42985      4.19997      4.17328         0.056809      0.036433     -0.006188
Fe	      2.18545      2.08494      4.18445        -0.027435      0.042027     -0.068337
Fe	      4.30106      4.13107      4.16532         0.015237     -0.062126     -0.073056
Fe	      4.29293      6.38863      6.31082        -0.011375      0.133498      0.019493
Fe	      8.41402      8.42455      8.29946         0.248309     -0.061125     -0.175760
Cu	      6.35816      8.39314      6.31554         0.035318     -0.010333     -0.066621
O	      1.96210      2.15954      2.21742        -0.235633      0.014590     -0.118207
O	      4.22708      4.30902      2.08138         0.026146      0.032311     -0.102033
O	      4.17164      2.02487      4.13952         0.110731     -0.135188      0.042295
O	      6.45236      4.26156      4.16513         0.025658     -0.104026     -0.009129
O	      6.35027      2.00393      6.38655        -0.056706      0.075678      0.175899
O	      8.57085      4.18374      6.14197        -0.115400     -0.010373      0.097014
O	      2.11622      4.29490      4.26103        -0.139250      0.062900     -0.188478
O	      4.18700      6.31137      4.18729        -0.049262      0.241596     -0.016767
O	      4.23987      4.33021      6.25050        -0.074510     -0.158571      0.230056
O	      6.26091      6.27920      6.14619         0.090119     -0.285884      0.154105
O	      6.27054      4.07254      8.30659         0.007059     -0.047202      0.024481
O	      8.56503      6.33923      8.48130        -0.066834     -0.044893      0.045672
O	      2.17328      6.41101      6.11641         0.036668      0.290891     -0.091001
O	      4.24526      8.40825      6.32548        -0.055664      0.015239     -0.051280
O	      4.29470      6.23127      8.34755        -0.008789      0.080533     -0.020871
O	      6.47449      8.38412      8.23834        -0.210538     -0.011283      0.276063
O	      6.45097      6.29584     10.50292         0.094490     -0.020507     -0.073084
O	      8.45849      8.36734     10.33111         0.013874     -0.049823      0.073595
