# total energy = -231.03216635 eV
 
CRYSTAL
PRIMVEC
0.023835 6.329955 6.258785 
6.349578 0.017848 6.264827 
4.239121 4.229952 0.005970 
PRIMCOORD
36 1
Li	     10.51865      4.24938      6.28124        -0.027927      0.024415     -0.006197
Li	      4.26025      0.04951      4.22417         0.007372      0.004520      0.006574
Li	      8.46013      4.33199      8.33593        -0.041638      0.035790      0.013903
Li	      2.17411      2.17633      4.20119         0.026260      0.062156      0.023351
Li	      4.20898      4.15515      4.20232        -0.010672     -0.061242      0.023915
Li	      8.45817      6.31804      6.26819        -0.016196     -0.019049     -0.035491
Li	      8.47886      6.33729     10.35623        -0.042873     -0.010061      0.003260
Li	      8.49422      8.36296      8.37277        -0.020311     -0.028828     -0.003837
Li	      6.52063      6.33514      8.31315         0.111341      0.002547     -0.023846
Ti	      6.37842      4.26192      2.19681         0.095608     -0.135404      0.223672
Ti	      6.40428      4.36296     10.34232         0.173247      0.318428     -0.199399
Fe	      8.43701      2.18743      6.20723         0.020273     -0.027099      0.047595
Fe	      4.22924      2.14738      2.21077         0.033284      0.050575     -0.082977
Fe	      6.37827      8.31296     10.44956         0.046849     -0.037579      0.001781
Fe	     10.39484      6.31546      8.41351         0.078675     -0.013999     -0.043352
Fe	      6.38879      4.29230      6.24986        -0.081413     -0.022417     -0.014390
Fe	      2.22128      4.19003      6.20833         0.008990     -0.059805      0.057845
Fe	      4.26896      6.28700      6.19410         0.068097      0.022937      0.028196
O	      2.14741      2.01263      2.06506        -0.083025     -0.058711      0.001054
O	      4.36883      4.24874      2.09416         0.067162      0.000178     -0.007502
O	      4.23874      2.12347      4.09054        -0.110639     -0.000548      0.097619
O	      6.38451      4.14893      4.11267        -0.001777      0.112276     -0.202723
O	      6.41969      2.19572      6.34566        -0.013367     -0.022655      0.097596
O	      8.35845      4.15977      6.29015         0.078887      0.016817      0.015432
O	      1.96088      4.23372      4.22557        -0.237303      0.022822     -0.208453
O	      4.24294      6.46774      4.16718        -0.000162      0.023662      0.023555
O	      4.35203      4.31898      6.23575         0.091123     -0.029593      0.003267
O	      6.28915      6.26606      6.28539        -0.013375     -0.045905     -0.020402
O	      6.35426      4.17105      8.41980        -0.012212      0.011540      0.110538
O	      8.54900      6.33682      8.33575        -0.088667      0.001761     -0.008271
O	      2.20436      6.39548      6.38298         0.010882      0.125941      0.049579
O	      4.19280      8.41667      6.23704        -0.081893      0.010302      0.048732
O	      4.12680      6.44169      8.27976        -0.134764     -0.018553      0.000783
O	      6.31370      8.57843      8.28929        -0.015845      0.137756      0.022649
O	      6.37000      6.26380     10.42154        -0.018870     -0.395993      0.005977
O	      8.59761      8.45530     10.50637         0.134876      0.003018     -0.050034
