# total energy = -209.85223416 eV
 
CRYSTAL
PRIMVEC
-0.001148 6.220873 6.212951 
6.118988 -0.007335 6.219233 
4.094589 4.166733 -0.020324 
PRIMCOORD
36 1
Li	      4.07705      4.10619      0.03577         0.010935     -0.029253     -0.054171
Li	      4.10419      6.18492     10.33861         0.027160     -0.013175      0.025873
Li	     10.13300      6.29262      8.35448        -0.009375      0.036316      0.000045
Li	      4.08480      4.24979      4.10633        -0.013899      0.031687     -0.001372
Li	     10.11997      8.25053     10.27023        -0.005377      0.018318      0.033878
Li	      8.25974      6.29224     10.18172         0.001136      0.010420     -0.068133
Li	      4.09058      6.21780      6.17904         0.016608      0.024355     -0.004742
Li	      4.19508      4.12064      8.28085        -0.049962     -0.023611      0.031209
Li	      6.13827      6.07236      8.30754         0.009413      0.002851      0.053990
Ti	      6.19894      8.13343     10.35194         0.226140     -0.595908      0.103718
Ti	      2.05254      4.18112      6.10232        -0.044639      0.079643     -0.250513
Mn	      6.13061      4.18558      2.09633         0.045435      0.006076     -0.010984
Co	      6.09277      4.18022      6.22727        -0.044902      0.012434      0.076429
Cu	      6.05470      6.22179      4.13904         0.041647      0.065539     -0.007132
Ni	      2.11547      8.31928      6.18501        -0.008134     -0.092280     -0.018653
Ni	      4.09351      2.06868      2.10733         0.026242     -0.038239      0.016232
Ni	      8.15167      4.21067      8.29197        -0.016666     -0.074512      0.114480
Ni	      8.18544      6.21632      6.22969         0.081364     -0.037096     -0.052546
O	      4.13482      6.26559      4.13054        -0.118430     -0.016264     -0.008039
O	      2.03789      1.98706      2.06947        -0.139364     -0.080171     -0.022261
O	      4.15675      4.08339      2.06061         0.112770      0.067344      0.022129
O	      4.13673      2.08423      4.18146         0.041810      0.008424     -0.069749
O	      6.11028      4.21717      4.07821         0.013045     -0.140438     -0.023834
O	      6.12970      2.26023      6.10024         0.045988      0.065108     -0.114437
O	      8.01095      4.14865      6.23567        -0.092542     -0.064796     -0.043262
O	      2.02453      4.10815      4.23106        -0.000663      0.139608      0.288521
O	      4.03967      4.10061      6.22290        -0.039818      0.151868      0.002429
O	      6.14660      6.20808      6.15765        -0.099205     -0.047608      0.115311
O	      6.14357      4.14323      8.09838         0.002195     -0.012874     -0.148704
O	      8.17050      6.17193      8.17885         0.019769      0.114691      0.132454
O	      2.04836      6.13552      6.37715        -0.029865     -0.151518      0.063786
O	      4.20765      8.29760      6.27876         0.230446      0.001983     -0.061300
O	      3.92512      6.29902      8.31855        -0.097373     -0.090506      0.012191
O	      6.14843      8.44085      8.32379         0.142239      0.076563      0.043188
O	      6.14239      6.33159     10.37716         0.001974      0.610646     -0.039447
O	      8.09232      8.30059     10.39632        -0.286102     -0.015624     -0.136583
