# total energy = -210.36762534 eV
 
CRYSTAL
PRIMVEC
0.065574 6.276004 6.220638 
6.224558 0.061367 6.225482 
4.170961 4.208631 0.019424 
PRIMCOORD
36 1
Li	      6.29825     10.38808      8.30194         0.069360     -0.000662      0.025265
Li	      4.31435      6.31379     10.36836        -0.077904      0.007351     -0.063859
Li	      6.25308      8.34469     10.29173        -0.034487      0.031631      0.004085
Li	     10.25609      6.41204      8.31082         0.002442      0.082387      0.022478
Li	      8.35750      4.37302      8.30193        -0.061776      0.108084      0.013925
Li	      8.35015      6.30451      6.37509         0.071353      0.060161      0.073957
Li	      8.25446      6.32120     10.29364         0.096606      0.010180     -0.029966
Li	      6.28548      8.45477      6.31955         0.036566     -0.010456      0.000000
Li	      6.36612      6.38638      8.35474        -0.038431     -0.049048     -0.091548
Ti	      8.30823      8.39405     12.34539        -0.119430     -0.071341     -0.030921
Ti	      2.17196      2.14215      4.05506        -0.147531     -0.075262     -0.300042
Mn	      6.27022      4.27771      6.23579        -0.131647     -0.093413      0.121760
Co	      4.19601      6.29895      6.27386         0.302319     -0.341667     -0.325327
Cu	      4.17120      4.20292      0.03693        -0.188322      0.097307      0.161294
Cu	      4.30282      8.38144      8.34276         0.089610     -0.314610      0.017628
Cu	      6.32008      4.31885     10.33853        -0.056376     -0.186426     -0.062442
Ni	      4.16357      4.25757      4.08475         0.067309      0.141927      0.114029
Ni	      8.32263      8.39199      8.33902        -0.064007      0.203853     -0.041993
O	      6.31558      8.38440      8.31049        -0.283927     -0.019287      0.032268
O	      6.27494      6.24576     10.54683         0.034164      0.074452      0.050805
O	      2.14026      2.05314      2.12745        -0.094087      0.038404      0.113288
O	      4.16644      4.11336      2.03314        -0.003244      0.115390     -0.211833
O	      4.11454      2.17027      4.08581        -0.083800     -0.046225      0.228851
O	      6.23699      4.35378      4.26202         0.121474      0.125305     -0.061754
O	      6.32702      2.32423      6.21122         0.175650     -0.031009     -0.064330
O	      8.22096      4.13493      6.30512         0.106066     -0.060559     -0.074371
O	      2.09294      4.08914      4.17467         0.011053     -0.067872      0.011813
O	      4.29607      6.37735      4.29817         0.094142      0.041664     -0.046515
O	      4.31314      4.35827      6.15959        -0.019305      0.237432     -0.062991
O	      6.32574      6.19673      6.11339        -0.797165      0.172018      0.105942
O	      6.10770      4.24859      8.13711         0.381743      0.053440      0.070440
O	      8.33636      6.49534      8.32636        -0.051032     -0.418611      0.034546
O	      2.09556      6.40488      6.22041         0.701352      0.089449     -0.045607
O	      4.13590      8.22061      6.41656         0.051239     -0.123742     -0.235118
O	      4.20566      6.20886      8.12237        -0.086722      0.234256      0.220286
O	      8.46840      8.47195     10.48057        -0.073254     -0.014504      0.325958
