# total energy = -210.32964467 eV
 
CRYSTAL
PRIMVEC
-0.025025 6.105694 6.216317 
6.456929 0.007821 6.184438 
4.323397 4.068329 -0.013867 
PRIMCOORD
36 1
Li	      4.36469     10.06738      6.24344         0.013337      0.018767      0.071263
Li	      8.60092      8.19340     12.35239        -0.050500      0.051763      0.078891
Li	      6.33108      4.04640      2.15038        -0.114867      0.101623     -0.019618
Li	      4.38805      2.08767      2.09535        -0.061833      0.083285      0.064307
Li	      8.52294      3.99620      4.09319        -0.053362      0.057551     -0.022675
Li	      6.52964      8.16610     10.24284        -0.076343     -0.057018      0.126234
Li	      4.36370      4.07912      4.00383         0.019764     -0.007397     -0.052169
Li	      6.42866      4.11547     10.33499         0.026133      0.028524     -0.003082
Li	      6.37068      8.16087      6.19352        -0.018439     -0.023033     -0.031373
Ti	      4.39099      2.02722      6.02889         0.313378     -0.125344     -0.593436
Ti	      4.17958      6.24974      6.22074        -0.085740      0.270533     -0.152092
Mn	      8.57736      6.08888     10.31575         0.059651     -0.167861      0.463413
Co	      6.39164      6.12791      8.30414         0.179541     -0.023562      0.388794
Cu	      4.36116      6.06965      2.10927         0.141305     -0.016362     -0.040360
Cu	      2.16935      2.05430      4.08524         0.113946      0.039893      0.041340
Cu	      6.47370      4.08764      6.15693         0.120534     -0.275952     -0.406321
Cu	      8.51907      8.15939      8.31326        -0.092919      0.058840      0.001102
Ni	      2.23254      4.01876      2.07281         0.042930      0.040708     -0.068071
O	      6.57787      4.22170      8.17583        -0.269009     -0.127035      0.099873
O	      6.37852      7.93156      8.26697         0.479171      0.539664     -0.282830
O	      2.00561      2.03061      2.13744         0.027680     -0.032708     -0.011315
O	      4.27532      4.11977      2.01109        -0.005410     -0.460236      0.055849
O	      4.41169      2.05164      4.24456        -0.005943     -0.016804      0.491578
O	      6.47398      4.17675      4.18967        -0.023900     -0.026209     -0.022774
O	      6.32705      2.09168      6.30579        -0.334970     -0.189611     -0.213619
O	      8.54182      4.18220      6.20271         0.209168      0.233094     -0.064951
O	      2.14954      4.10108      4.12055        -0.047963      0.094332      0.017690
O	      4.11371      6.08845      4.18106        -0.123972      0.059513      0.382524
O	      4.37668      4.03567      6.30470        -0.276637     -0.038297      0.074608
O	      6.46941      6.09467      6.20957        -0.042810      0.417276      0.028283
O	      8.70392      6.14269      8.34967        -0.028726     -0.047563     -0.216312
O	      2.25780      6.08827      6.06865         0.109087      0.022955     -0.077497
O	      4.27933      8.04003      6.21684        -0.010120     -0.377880      0.011294
O	      4.28266      6.05080      8.14162        -0.125149     -0.004909      0.008773
O	      6.65733      6.10308     10.21855         0.040020     -0.168292      0.091007
O	      8.60251      8.02894     10.28093        -0.047031      0.067751     -0.218328
