# total energy = -210.92479906 eV
 
CRYSTAL
PRIMVEC
0.058609 6.081639 6.364507 
6.366727 0.061745 6.359247 
4.275812 4.081409 0.011224 
PRIMCOORD
36 1
Li	      4.26424     10.03884      6.32304        -0.076934      0.047749      0.009738
Li	      8.46849      2.17739      6.30753        -0.018213      0.010546     -0.011229
Li	      4.21352      2.09715      2.13360        -0.029295      0.053648     -0.003073
Li	      2.20885      4.05883      2.26427         0.064909     -0.018365     -0.003048
Li	      2.25095      2.21112      4.21280         0.045845     -0.087717     -0.063777
Li	      4.19574      4.03262      4.30038         0.054585     -0.032689     -0.047323
Li	      4.29642      2.06363      6.26374         0.025581     -0.011779     -0.042246
Li	      0.25713      4.08149      4.31100         0.011259      0.014223      0.017858
Li	      2.12432      4.06106      6.22501         0.015627     -0.042016      0.039413
Ti	      2.02504      0.06336      2.04346        -0.315825      0.303303      0.240085
Ti	      4.34109      6.22083      6.26949         0.018788      0.434445     -0.434074
Mn	      4.29592      6.14862      2.17634         0.244032     -0.100700     -0.038227
Co	      6.32218      2.08383      4.21292        -0.103808      0.033706      0.065312
Cu	      8.47973      4.15439      4.24446        -0.098341     -0.043262      0.069120
Cu	      6.41129      4.11644      6.33982         0.050445     -0.013610     -0.024958
Cu	      2.17928      6.03386      4.28413        -0.155024      0.235364      0.082685
Cu	      8.56349      8.15114      8.53141        -0.063958      0.045401     -0.135297
Cu	      6.43515      6.08362      8.55947         0.018783     -0.017477      0.019048
O	      8.74933      6.18103      8.58451        -0.078554     -0.083496      0.039882
O	      6.28894      6.22995     10.56618         0.206655     -0.031287     -0.030564
O	      8.31559      8.11092     10.53694         0.075893     -0.256179      0.122454
O	      1.99533      1.97535      2.11207         0.051468     -0.202008     -0.027552
O	      4.38190      4.18548      2.00196         0.150328     -0.046076      0.014452
O	      4.39112      2.02929      4.17285         0.011633      0.209920      0.001654
O	      6.42207      3.99100      4.01546        -0.047416     -0.083107     -0.284099
O	      6.37370      2.23990      6.13720        -0.002479     -0.106650     -0.042848
O	      8.29403      4.14807      6.19574        -0.026534     -0.034776      0.094383
O	      2.23239      4.15132      4.27073         0.016678     -0.075294      0.041520
O	      4.43652      6.08881      4.42816        -0.005874      0.044733      0.474535
O	      4.50305      4.13418      6.51819        -0.080848      0.034258     -0.110129
O	      6.34187      6.02458      6.57106        -0.054684      0.075289      0.006220
O	      6.30638      4.08445      8.70484         0.096105      0.112111      0.104922
O	      2.33368      6.04010      6.46126         0.120071     -0.033743      0.088713
O	      4.32748      8.05557      6.41910         0.040894     -0.448538     -0.071001
O	      4.11542      6.06469      8.47856        -0.092271      0.057743     -0.150535
O	      6.49045      8.10588      8.59879        -0.069520      0.056330     -0.012015
