# total energy = -210.26706891 eV
 
CRYSTAL
PRIMVEC
0.019349 6.247569 6.156163 
6.227442 0.011061 6.164419 
4.151804 4.170717 0.007063 
PRIMCOORD
36 1
Li	      8.33355      8.36688     12.23269         0.026944      0.053827     -0.027288
Li	      8.31530     10.34040     10.27041         0.006150     -0.044801      0.005935
Li	      8.26042      4.19264      8.27350        -0.012128      0.016561      0.044969
Li	      6.09204      6.30500      4.12300        -0.122463      0.109981      0.036355
Li	      4.14959      4.26105      4.09369        -0.062479      0.111475     -0.008910
Li	      4.15572      8.25262      4.08449         0.030305     -0.102402      0.010086
Li	      8.37096      6.31319     10.26211         0.065622     -0.001225      0.013800
Li	      4.12992      6.26297      6.05836        -0.039323      0.045417     -0.074891
Li	      4.22722      4.18594      8.28417         0.013808      0.008320      0.042930
Ti	      4.04268      2.07125      2.13092        -0.199512     -0.161620      0.038964
Ti	      8.29677      6.20198      6.22507        -0.040529     -0.338680      0.124211
Mn	      2.12533      4.19763      6.06970        -0.151950      0.081617     -0.019947
Co	      6.33248      8.34248     10.26381        -0.031569     -0.164293     -0.035892
Ni	      0.03583      6.21899      6.12207        -0.066532      0.005876     -0.173780
Ni	      6.27511     10.40042      8.25615         0.104306     -0.010286      0.015730
Ni	      4.19270      6.28257      2.14664         0.029849     -0.024609      0.002970
Ni	      6.19798      4.19826      6.15257         0.016548      0.035657     -0.140022
Ni	      6.23367      6.18348      8.29486         0.020259      0.032810      0.037378
O	      4.16114      6.27353      4.06835        -0.023090     -0.022413      0.099694
O	      2.16535      2.06160      2.05140         0.207374      0.093818      0.003074
O	      4.19928      4.11136      2.00537        -0.089675     -0.025016      0.135597
O	      4.28672      2.11035      4.07665        -0.035428      0.026368     -0.021415
O	      6.22489      3.97124      4.12805        -0.005880      0.002938     -0.004250
O	      6.17258      2.11541      6.06336        -0.020071      0.004570      0.026496
O	      8.29263      4.30142      6.12736        -0.023414      0.308605      0.026217
O	      2.06000      4.18214      4.27620         0.001029     -0.013501     -0.023814
O	      4.05190      4.07829      6.14712        -0.000640     -0.069066      0.033071
O	      6.32691      6.33191      6.17296         0.098320      0.076691     -0.108109
O	      6.22755      4.17589      8.13920         0.001867     -0.074405      0.140152
O	      8.34202      6.23863      8.09493         0.063311     -0.018775     -0.283574
O	      2.08670      6.07871      6.22158         0.141428     -0.071234     -0.045117
O	      4.32249      8.36320      6.26132         0.054439     -0.126982      0.075284
O	      4.18784      6.40053      8.20637        -0.037575      0.168168      0.004651
O	      6.19459      8.30569      8.27560         0.032903     -0.024365     -0.023417
O	      6.24277      6.45982     10.27569         0.029695      0.121737      0.097399
O	      8.12851      8.34199     10.28482         0.018104     -0.010763     -0.024536
