# total energy = -213.10084646 eV
 
CRYSTAL
PRIMVEC
0.017441 6.161047 6.380141 
6.144198 0.062626 6.334675 
4.131998 4.113676 0.006109 
PRIMCOORD
36 1
Li	      2.13960      8.20070      6.43072         0.027580      0.008334      0.087883
Li	      4.04992      1.99782      2.13846        -0.020557      0.001468     -0.022277
Li	      4.12369      6.21742     10.50172        -0.059657      0.043370      0.017322
Li	      4.16578      6.21676      2.22216         0.131549     -0.002663     -0.024459
Li	      2.01286      2.08637      4.16086         0.032441     -0.025930     -0.099112
Li	      8.29547      6.18952     10.42462        -0.050885      0.001191     -0.103927
Li	      4.14127      6.17897      6.38599        -0.017179      0.039067      0.036607
Li	      4.17913      4.20102      8.50817        -0.058286      0.075275      0.079270
Li	      6.12119      6.12481      8.44463        -0.072271      0.079110      0.016713
Ti	      6.31657      8.23576     10.51813         0.266670      0.003516     -0.691047
Ti	      8.13783      6.26200      6.47796        -0.170609     -0.118914      0.315148
Mn	      4.17384     10.26960      6.41540        -0.157278     -0.145291     -0.149489
Co	      2.08894      0.08566      2.12747         0.532680     -0.576910      0.347639
Co	      4.08536      4.19198      4.21708        -0.291130      0.917794      0.036224
Cu	      6.17083      8.24628      6.36030         0.067184     -0.139208     -0.057701
Ni	     10.25686      8.22045     10.53930        -0.015847      0.061297     -0.008500
Ni	      2.04963      4.05956      2.14745         0.106566     -0.300625     -0.051634
Ni	      6.15878      4.14074      6.44994         0.097573      0.025410     -0.111817
O	      2.05135      1.93135      2.09529         0.041787      0.784978     -0.027523
O	      4.20117      4.10439      1.98923        -0.139172      0.075563      0.042850
O	      4.21080      2.24977      4.34624         0.015850     -0.324311      0.201573
O	      6.08520      4.11278      4.19102         0.657797     -0.193810      0.070012
O	      6.10070      2.05849      6.26016        -0.060490     -0.152703     -0.023116
O	      8.31653      4.22647      6.37816         0.066302      0.053200     -0.063374
O	      2.14949      4.11336      4.11687        -0.635815     -0.136884      0.253088
O	      4.09247      6.07574      4.28031         0.124987     -0.409850      0.026609
O	      4.08215      4.08577      6.36018         0.066217      0.068053     -0.233687
O	      6.24336      6.17942      6.35545         0.076623      0.037846     -0.002881
O	      6.19800      4.15509      8.46713        -0.085836      0.046368     -0.088677
O	      8.22210      6.20444      8.32240         0.031760      0.122537     -0.364617
O	      1.96816      6.13388      6.60195        -0.140664      0.046262     -0.182156
O	      4.21886      8.36029      6.27378        -0.029655      0.187487      0.058138
O	      3.92128      6.20003      8.48734        -0.168961      0.117841     -0.037343
O	      6.15740      8.35025      8.65049         0.076476     -0.373098      0.454181
O	      6.16856      6.28331     10.74778         0.051328      0.148813      0.223443
O	      8.16963      8.27730     10.63103        -0.297080     -0.044585      0.076636
