# total energy = -45.77290046 eV
 
CRYSTAL
PRIMVEC
-0.000616 1.992567 1.994762 
1.979822 2.032432 -4.030011 
-3.984974 2.028750 -2.029751 
PRIMCOORD
8 1
Li	     -1.89564      3.82571     -1.90134         0.112235      0.608631     -0.368701
Li	     -0.04061      2.02027     -2.02010         0.299057     -0.128504     -0.090380
Mn	      0.00008      0.00143      0.00057         0.598992     -3.253093      2.263980
Ni	     -1.92294      1.94195     -0.01644        -1.343113     -0.286385      0.963515
O	     -1.94009      4.02045     -4.02452        -0.741633      1.109222     -1.352069
O	     -2.04164      1.94285     -1.94020        -0.365651      0.402894     -1.217422
O	      0.10640      3.90242     -1.98164         0.274575      0.360804     -0.003644
O	      0.00475      1.82446      0.10253         1.165538      1.186431     -0.195280
