# total energy = -213.11669201 eV
 
CRYSTAL
PRIMVEC
0.011556 6.237160 6.169590 
6.238926 0.005122 6.175833 
4.160785 4.163844 0.001935 
PRIMCOORD
36 1
Li	      4.16887      4.17270      0.03601         0.010466     -0.021709      0.033579
Li	      6.14041      6.24512      4.24272        -0.065231      0.042653     -0.055034
Li	      4.21245      4.14123      4.20802         0.002429     -0.056910     -0.006387
Li	      8.19056      6.35509      6.22248        -0.083441     -0.034990      0.034538
Li	      6.16541      4.22814      6.19740        -0.017932      0.036463     -0.027759
Li	      0.03765      4.13945      4.09846         0.039026     -0.023563     -0.010754
Li	      4.27352      6.15927      6.20369        -0.013014     -0.018832      0.041645
Li	      4.20958      4.21634      8.09121         0.016511      0.034424     -0.003119
Li	      6.22335      6.20179      8.10872        -0.059926      0.081439     -0.016016
Ti	      4.19100      0.09602      4.15195        -0.045783      0.298313     -0.060737
Ti	      2.17497      6.22194      4.16742         0.229738     -0.122155      0.065333
Mn	      8.29608      4.18275      8.20724         0.264208     -0.104421     -0.043152
Co	      2.15576      8.33387      6.19303         0.073996      0.074248     -0.034604
Co	      4.16942      8.32130      8.19122         0.061287      0.024927      0.233552
Cu	      6.23388      2.09466      4.15411        -0.120711      0.012564     -0.094607
Cu	      6.19546      2.14742      8.19521        -0.085099     -0.059066     -0.041406
Cu	      6.34207      8.19232      6.18927        -0.173272      0.244828     -0.169831
Ni	      6.20598      4.15433      2.04299        -0.062124      0.047997     -0.082705
O	      4.10100      4.13368      6.18864         0.231059     -0.015107     -0.014585
O	      6.21405      6.32639      6.14064        -0.008615     -0.096307     -0.044688
O	      2.24210      2.15227      1.99128         0.017718      0.060817      0.186167
O	      4.07603      4.04682      2.07174        -0.089891      0.098865     -0.006275
O	      4.17646      2.00423      4.01285         0.150586     -0.194638      0.022726
O	      6.36978      4.06751      4.09284         0.111832      0.144336      0.206683
O	      6.53181      2.06489      6.29926        -0.103686      0.017283     -0.164612
O	      8.35817      4.22565      6.17582         0.003426     -0.132438     -0.269491
O	      2.04330      4.26526      3.98125        -0.021735      0.055892      0.129121
O	      4.02342      6.26006      4.01718        -0.212392      0.027778      0.090208
O	      6.43307      4.11210      8.21420        -0.158420      0.029543     -0.032682
O	      8.24878      6.08252      8.32016        -0.092680      0.108078      0.054350
O	      2.08278      6.14318      6.08732        -0.056254     -0.014902     -0.329165
O	      4.01723      8.29639      6.28657         0.111083     -0.038362     -0.087046
O	      4.12291      6.33767      8.35132         0.086796     -0.084220      0.140193
O	      6.07892      8.38296      8.13781         0.052608     -0.179399      0.531702
O	      6.19535      6.33707     10.30523         0.022097     -0.221104      0.015752
O	      8.33113      8.30756     10.33274        -0.014660     -0.022324     -0.190892
