# total energy = -213.00696268 eV
 
CRYSTAL
PRIMVEC
-0.003442 6.003148 6.753640 
6.153862 0.007859 6.739401 
4.111667 4.005564 -0.004420 
PRIMCOORD
36 1
Li	      8.33210      8.02908     13.29929         0.032266     -0.036324     -0.060414
Li	      4.19224      7.98721      8.78169        -0.003435     -0.061415     -0.075663
Li	      6.24729      7.95555     10.95636        -0.003032      0.009628     -0.012880
Li	     10.15640      8.10795     11.44778         0.000497      0.032206      0.052978
Li	      8.17995      6.11805     11.22553        -0.073960      0.054241     -0.037676
Li	      6.11334      8.03215      6.89983         0.002025     -0.033048      0.043162
Li	      4.07127      5.98144      6.79027         0.007470      0.031700      0.005642
Li	      8.20431      8.01830      9.22949         0.020191     -0.029925      0.028502
Li	      5.96799      6.13202      9.11215        -0.005466     -0.004670      0.130698
Ti	      8.07851      4.08721      9.06485        -0.202895      0.254660     -0.067857
Ti	      6.17815      6.03949      4.55931         0.035491      0.115135      0.222686
Mn	      2.13273      5.92922      8.90490         0.059468      0.066785     -0.085230
Co	      6.15941      3.91888      6.77004         0.015759      0.091708      0.052256
Co	      4.11112      5.96928      2.36051        -0.068257      0.162278     -0.076719
Cu	      6.19092      6.02024     13.44819         0.001440      0.169106      0.081271
Cu	      4.15318      5.97591     11.14621         0.034315      0.115488     -0.026785
Cu	      4.16136      3.93326      4.49825        -0.039297     -0.050995     -0.013084
Cu	      8.21345      6.01551      6.77687        -0.070391      0.049936      0.039395
O	      4.14427      8.19106      6.71874         0.006856     -0.249295      0.042226
O	      5.98613      6.06535     11.26674         0.251377      0.022600     -0.053745
O	      8.20136      8.13788     11.28780        -0.000861     -0.325310      0.028351
O	      1.92770      1.98514      2.39557         0.040460      0.037504     -0.012929
O	      4.15063      4.06059      2.49701         0.018388      0.013742     -0.096811
O	      3.99837      1.90096      4.31156        -0.014446      0.130254     -0.138806
O	      6.37489      4.01251      4.21505        -0.228275      0.001134     -0.015846
O	      6.07764      1.92822      7.15439         0.043997     -0.168423      0.051959
O	      8.23725      4.04606      7.07713         0.118795     -0.117374      0.149163
O	      1.97712      3.91236      4.30473         0.002558     -0.187905     -0.049234
O	      4.22066      5.93831      4.33600         0.003580      0.069908     -0.017386
O	      4.22382      3.89319      6.42049        -0.081058      0.070105      0.065913
O	      6.20648      5.93979      6.46497        -0.057019      0.000080     -0.220569
O	      6.20857      3.95332      8.94668         0.186497     -0.044125     -0.001097
O	      8.31198      5.93850      9.18151         0.001040     -0.197886      0.070466
O	      1.93851      6.05030      7.01021         0.067529     -0.006260      0.066867
O	      3.95420      6.01529      8.73734        -0.020317      0.049794     -0.035253
O	      6.19921      8.11219      8.93087        -0.081292     -0.035037     -0.033549
