# total energy = -213.16742242 eV
 
CRYSTAL
PRIMVEC
0.022454 6.079541 6.257798 
6.238011 0.002698 6.277461 
4.156221 4.063941 0.004231 
PRIMCOORD
36 1
Li	      2.11436      2.03652      0.11362         0.060538     -0.024027      0.017742
Li	      2.20385      6.08379      8.31572         0.118193     -0.084617      0.016938
Li	      4.14363      1.95942      2.16281         0.129925     -0.144763     -0.000261
Li	      4.18551      6.11524     10.30395        -0.002777      0.034953     -0.095217
Li	      4.16048      6.09739      2.14061         0.027339     -0.001239     -0.007725
Li	      8.31834      6.06317     10.38931        -0.016532      0.033124      0.070909
Li	      6.28092      8.10438      6.30565        -0.015777     -0.010007      0.070397
Li	      4.13145      6.07735      6.39407        -0.012107      0.038766      0.041289
Li	      6.18042      6.13013      8.33389        -0.198619      0.134393     -0.012091
Ti	      0.21739      6.09637      6.34691         0.732388     -0.236918     -0.136335
Ti	     10.28396      8.07370     10.48850        -0.208457     -0.157191      0.405253
Mn	      6.23318      4.06948      6.28657        -0.152496      0.073625     -0.237542
Co	      6.29040      8.08867     10.42267         0.021663      0.031892     -0.204275
Co	      8.29678      4.09044      8.37213         0.220071     -0.019323     -0.186863
Ni	      2.12084      2.01782      4.11577         0.059071     -0.035651      0.115191
Ni	      4.14341      4.10615      4.13411         0.032229      0.003515     -0.005684
Ni	      8.29914      6.08458      6.26118         0.006300     -0.044756     -0.281418
Ni	      8.27528      8.12421      8.35392        -0.184118     -0.023321     -0.048623
O	      4.14688      5.95897      8.35730         0.054232      0.347453     -0.019078
O	      2.09840      2.22633      2.13988        -0.006197     -0.356155     -0.212392
O	      4.16159      4.10635      1.98933        -0.180451      0.048445     -0.122959
O	      4.30918      2.07759      4.18536         0.065054     -0.068833     -0.034228
O	      6.23965      3.97571      4.34700         0.103546     -0.048666      0.175997
O	      6.23763      2.04219      6.13886         0.062262     -0.071478      0.113736
O	      8.19330      4.04072      6.42252        -0.077191     -0.044395     -0.771636
O	      2.01827      4.06868      4.04147        -0.273663      0.204450      0.781855
O	      4.18113      6.18827      4.17014        -0.099880      0.368696     -0.125943
O	      4.29212      4.05055      6.24031         0.162906      0.018732     -0.102848
O	      6.26081      5.94770      6.16557        -0.038197     -0.135281      0.072119
O	      6.12923      4.05387      8.27738         0.417441     -0.003701      0.080880
O	      8.30792      6.02038      8.28402        -0.073387      0.195638      0.476093
O	      2.00733      6.07428      6.30027        -0.711955      0.033628     -0.023271
O	      4.17987      8.19937      6.12092         0.008588      0.273647     -0.206634
O	      6.36539      8.11274      8.53688        -0.318414     -0.140029      0.128325
O	      6.22682      6.08751     10.57527         0.065342     -0.133112      0.135125
O	      8.36603      8.09273     10.43687         0.223132     -0.057496      0.133174
