# total energy = -214.87820508 eV
 
CRYSTAL
PRIMVEC
0.045843 6.321215 6.121417 
6.265225 0.038232 6.128800 
4.200962 4.243356 0.001509 
PRIMCOORD
36 1
Li	      2.13617      8.30379      6.18623        -0.035645      0.009540      0.002060
Li	      2.08782      6.37089      7.97412         0.001649      0.038671      0.054305
Li	      4.18753      6.31698      2.04037        -0.009784      0.089171      0.044104
Li	      2.16596      4.19164      2.04084        -0.079513     -0.062814      0.009887
Li	      4.25070      2.18069      6.17364         0.047612      0.022410     -0.044069
Li	      2.17777      6.35321      4.17038         0.020434      0.098334     -0.082314
Li	      2.14622      4.42655      6.11172         0.005114      0.063181     -0.003751
Li	      4.04390      6.29698      6.15226        -0.033541     -0.018670     -0.000116
Li	      4.20547      4.22192      8.08572        -0.007768     -0.062456      0.012162
Ti	      8.41297     10.50242     10.20000        -0.018705     -0.267498      0.240931
Ti	      6.46013      6.40883      8.07510         0.439563     -0.003590     -0.036682
Mn	      6.25280      4.22799      6.17994         0.022241     -0.149545     -0.037939
Co	      6.34985      8.46161     10.21853        -0.179284      0.012100     -0.099609
Co	      2.11509      2.12584      4.07793        -0.046164      0.041514     -0.107797
Co	      4.30053      8.33551      4.23739        -0.041213     -0.069107      0.066367
Cu	      4.12343      2.16396      1.98535         0.179504     -0.019334     -0.187579
Ni	      0.10035      0.05835      0.06698        -0.197697      0.041903     -0.136496
Ni	      4.13672      4.30385      4.07126         0.003634     -0.070201      0.019603
O	      2.09708      6.35311      6.06449         0.126786      0.009504      0.036047
O	      2.17316      2.10373      2.20423        -0.274083     -0.027040      0.175626
O	      4.17825      4.14366      2.06162         0.015611     -0.268193     -0.038302
O	      4.12937      2.09974      4.01920         0.115781     -0.102471      0.361081
O	      6.33331      4.33768      4.19973         0.058715      0.027063     -0.078017
O	      6.28091      2.27853      6.10288         0.104238      0.071104     -0.406295
O	      8.28603      4.30429      6.01729        -0.016402      0.013945     -0.076578
O	      2.06999      4.01042      4.11678         0.012199     -0.093074      0.015217
O	      4.40832      6.39677      4.04492         0.022723      0.001706      0.035428
O	      4.37330      4.23855      6.07359         0.066316      0.031561      0.155227
O	      6.31078      6.21851      6.14397         0.027342     -0.008791      0.150818
O	      6.26680      4.36761      8.10275        -0.013557      0.073634     -0.106491
O	      8.25659      6.38437      8.23263        -0.289871     -0.004265     -0.046698
O	      4.19704      8.51460      6.07232         0.029701      0.020528     -0.102090
O	      4.26743      6.44109      8.26324        -0.046984      0.238039     -0.091757
O	      6.25624      8.33271      8.18086         0.166881     -0.013495      0.429269
O	      6.19978      6.29616     10.17413        -0.048355      0.129858     -0.130069
O	      8.42746      8.61939     10.14145        -0.127478      0.206777      0.004519
