# total energy = -215.78658997 eV
 
CRYSTAL
PRIMVEC
-0.017801 6.284559 6.210207 
6.124109 0.001798 6.191180 
4.089585 4.184106 -0.006057 
PRIMCOORD
36 1
Li	      8.16777      8.40704     12.33625        -0.037580      0.032714      0.064703
Li	      2.04022      0.12318      2.11971         0.003932      0.047507      0.033430
Li	      8.06167     10.33165     10.31733        -0.004709      0.044393     -0.024163
Li	      6.17610      2.20772      4.10291        -0.080106      0.066605      0.059243
Li	      2.08086      4.07263      2.11360        -0.025054     -0.014258      0.008098
Li	      2.04622      2.06469      4.05250        -0.002136     -0.036628      0.032492
Li	      4.08518      2.05958      6.10399        -0.000460     -0.026253     -0.067899
Li	     10.09538      8.30783     10.34902         0.032177     -0.051786     -0.032796
Li	      2.10147      6.36736      4.17797         0.029434     -0.038578      0.003298
Ti	      6.02588      0.15295      6.17452        -0.250828      0.534900      0.115099
Ti	      6.24498      6.22338      8.43694         0.067904     -0.401471      0.076207
Mn	      2.02083      4.18165      6.17399         0.104598     -0.225171     -0.207246
Co	      4.10085      4.17323      4.13276         0.143069     -0.175029     -0.000974
Co	      6.20982      4.16464      6.12777         0.120960      0.133603      0.169266
Co	      4.04451      6.29225      6.20126         0.133074     -0.056055     -0.096519
Cu	      3.98432      2.09656      2.13110         0.049886     -0.149618     -0.158228
Cu	      8.14371      8.40754      8.39522        -0.087544     -0.026617     -0.429359
Ni	      0.04830      2.11327      2.12708        -0.157231      0.064901      0.065225
O	      8.15004      8.36859     10.26544        -0.063732      0.044169      0.090806
O	      2.04322      2.11011      2.02245         0.215834      0.006258     -0.043628
O	      4.08569      4.21843      1.89049         0.016552      0.039535     -0.171652
O	      4.08879      2.29084      4.05615         0.047156      0.363258      0.245671
O	      5.99625      4.19881      4.18950        -0.109651     -0.083007     -0.102157
O	      6.13291      2.01921      6.21998         0.000624     -0.610723     -0.154903
O	      8.27608      4.20996      6.10059         0.067594     -0.046586     -0.003539
O	      2.17213      4.15126      4.30270         0.023290      0.005930      0.004152
O	      4.08028      6.10194      4.23589        -0.051896     -0.052561      0.163146
O	      3.99479      4.34390      6.35040        -0.071766      0.082817      0.161667
O	      6.00425      6.35956      6.28537        -0.112972      0.234638      0.022458
O	      6.13041      4.26235      8.20636         0.288951      0.173587     -0.031002
O	      8.09494      6.28017      8.23827        -0.187407      0.034909      0.077841
O	      2.04349      6.10808      6.20320        -0.046346      0.060377      0.002687
O	      4.17451      8.29819      6.17464         0.108357      0.000188     -0.106169
O	      4.11934      6.32979      8.14337         0.013749     -0.202713      0.094268
O	      6.03442      8.23545      8.15061        -0.221759      0.260469      0.312229
O	      6.10985      6.27382     10.30548         0.044036     -0.033706     -0.171755
