# total energy = -215.06952268 eV
 
CRYSTAL
PRIMVEC
0.022856 6.056521 6.581081 
6.190382 0.022696 6.580392 
4.112676 4.022968 0.031048 
PRIMCOORD
36 1
Li	      0.12822      5.97973      6.58052         0.034538     -0.004625     -0.015993
Li	      2.14131      7.97817      6.66586        -0.002506     -0.042457     -0.003045
Li	      2.06361      0.06620      2.14629         0.060825     -0.039780     -0.046708
Li	      4.11812      6.11867     10.75682        -0.023749      0.008160     -0.051389
Li	      0.01904      1.99465      2.17664        -0.027749      0.051464      0.065524
Li	      6.24654      5.97947      4.51276         0.000396     -0.045872      0.021797
Li	      6.07433      8.09593      6.69790        -0.010459      0.013221      0.036851
Li	      4.04516      6.11174      6.67590        -0.036513     -0.036683      0.007127
Li	      6.13888      6.06734      8.63722        -0.013446     -0.009580      0.002025
Ti	      6.18415      8.13282     10.89191        -0.078823      0.271275     -0.208198
Ti	      8.22774      4.03634      8.75066        -0.118478     -0.037379     -0.007238
Mn	      4.11565      8.06657      4.51081        -0.046204      0.013842      0.066692
Co	      4.14415      4.09161      4.43237         0.025855      0.046929     -0.013970
Co	      4.16691      2.02621      6.57954         0.032381      0.069333     -0.074344
Co	      4.14025      4.10722      8.71680         0.139732     -0.113783     -0.290085
Cu	      4.10655      8.00277      8.69872         0.066264      0.189233     -0.150202
Cu	      6.23271      4.05693      6.57140         0.004619      0.003183      0.017979
Cu	      2.06510      6.06372      4.62124         0.047974      0.046691      0.083651
O	      2.07858      6.01772      6.58138        -0.041997      0.013481      0.056506
O	      2.08372      2.12096      2.15465         0.037939      0.136155      0.047392
O	      3.97039      3.97523      2.37375        -0.050322     -0.141103     -0.122683
O	      4.24128      2.01976      4.62002        -0.020812     -0.102845      0.055890
O	      6.19894      3.95088      4.29338         0.077709     -0.185969     -0.137499
O	      6.13943      2.17464      6.45573         0.021133     -0.184725      0.068000
O	      8.14914      4.11797      6.77567         0.064472     -0.021255      0.080471
O	      1.97262      4.10354      4.31467        -0.057896     -0.242417     -0.121340
O	      4.02552      6.11050      4.43658         0.148551      0.052973     -0.049737
O	      4.31595      3.97132      6.51925        -0.048987      0.000424      0.214630
O	      6.36262      5.91552      6.57809         0.000049      0.165019      0.021114
O	      6.26332      4.06498      9.06512        -0.095684      0.021663      0.042544
O	      8.28896      6.05750      8.55109         0.010929      0.286668      0.108375
O	      4.12737      8.06142      6.36362        -0.038754      0.004652      0.025343
O	      4.12647      6.07263      8.72173        -0.035654     -0.345255      0.313776
O	      6.12547      8.03379      8.96238         0.028806      0.003815      0.069165
O	      6.27596      6.08036     11.06275        -0.178966     -0.025846     -0.022373
O	      8.25822      8.04769     10.96696         0.124828      0.181393     -0.090050
