# total energy = -206.01371903 eV
 
CRYSTAL
PRIMVEC
-0.002396 6.250842 6.238486 
6.134900 0.006333 6.228827 
4.094764 4.165808 -0.000512 
PRIMCOORD
36 1
Li	      6.15673      4.14968      2.13504        -0.042663      0.038525      0.050920
Li	      6.19179      8.39487     10.28305         0.083314     -0.025883     -0.048503
Li	      2.02032      4.19320      2.22165        -0.030295     -0.161676      0.103808
Li	      6.06172      6.28415      4.14374        -0.176018      0.028469     -0.106748
Li	      4.06926      4.22588      4.14900        -0.037347      0.161699     -0.172062
Li	      8.22038      6.19695     10.26897         0.071042     -0.002384      0.141198
Li	      4.07857      6.19593      6.20112        -0.084340      0.149543     -0.188918
Li	      8.16034      8.31546      8.33109         0.001899      0.113426      0.089588
Li	      6.13453      6.25289      8.33343         0.084170     -0.103980      0.004472
Ti	      0.11568      6.27307      6.28559         0.664897     -0.078965      0.143924
Ti	      4.09301      1.99737      2.21215        -0.477331     -0.064282     -0.075402
Mn	      6.09188      4.24740      6.24352         0.305029     -0.109722      0.331742
Cu	      8.14760     10.39191     10.37369         0.032273     -0.031065     -0.356001
Ni	      2.06915      8.32991      6.22241         0.041211     -0.296058      0.180414
Ni	      0.02484      2.11348      2.11779         0.784344     -0.245634     -0.030433
Ni	      4.07366      2.12711      6.24772         0.153062      0.155569      1.145464
Ni	      6.14523      4.16720     10.33508         0.060936     -0.315208     -0.072710
Ni	      2.08022      4.11997      6.21958        -0.162565      0.116641      0.038697
O	      2.04966      2.06380      2.02988         1.291704      0.015195     -0.061977
O	      4.06139      4.10529      1.97229        -0.006734     -0.302685     -0.202625
O	      4.10666      2.05518      4.09864        -0.005809      0.181213      0.343060
O	      6.18435      4.13981      4.32418        -0.150077      0.042426      0.019567
O	      6.14802      2.05353      6.27373        -0.443264      0.002105     -0.713892
O	      8.12448      4.18676      6.13996        -0.054772      0.675560      0.222272
O	      1.89967      4.14965      4.24536         0.321467      0.095876     -0.139284
O	      4.07023      6.43612      4.03991        -0.034403     -0.003738      1.187611
O	      4.17542      4.17058      6.17112        -0.106818     -0.792547      0.080223
O	      6.15055      6.14668      6.26880         0.227166      0.030378     -0.097328
O	      6.16096      4.14826      8.16644        -0.087084      0.544773     -0.373213
O	      8.36517      6.25039      8.26059        -1.782215     -0.007235     -1.541571
O	      1.95482      6.25177      6.20834        -0.375860     -0.064785      0.070258
O	      4.08442      8.43949      6.32659         0.071760      0.089311      0.093799
O	      4.04609      6.34992      8.38549         0.045908      0.048770     -0.138199
O	      6.00737      8.31735      8.25350        -0.017634     -0.020027      0.048603
O	      6.06718      6.12221     10.51080         0.057860      0.266909      0.120150
O	      8.31483      8.41208     10.41213        -0.222813     -0.130516     -0.096905
