# total energy = -207.76697147 eV
 
CRYSTAL
PRIMVEC
-0.007807 6.296343 6.186545 
6.174295 -0.004288 6.182636 
4.104567 4.183130 0.008990 
PRIMCOORD
36 1
Li	      6.13728     10.44161      8.24978        -0.018972     -0.004758      0.031551
Li	      4.17382      6.32366     10.33034         0.003504     -0.001430      0.013895
Li	      6.08157      2.03189      4.16219        -0.003851     -0.050976     -0.000924
Li	      4.13531      4.17049      4.20626         0.001827      0.021820     -0.038059
Li	      4.15602      2.13845      6.14455         0.023468     -0.046006      0.036294
Li	      4.09974      8.43259      4.20576         0.005947      0.008608     -0.022846
Li	      8.17822      6.29630     10.32138         0.008518      0.001228     -0.019051
Li	      4.10233      6.26058      6.15577        -0.041706      0.043949     -0.022617
Li	      6.17353      6.33653      8.27060         0.032811      0.001957      0.009108
Ti	      6.19067      6.20231      4.25126        -0.151445     -0.117872      0.106297
Ti	      8.10199      8.55374      8.34930        -0.083337      0.261711      0.404793
Mn	      8.22286      4.21649      8.26941        -0.162439      0.298941     -0.138963
Cu	      4.08952      6.25519      2.08059        -0.103827     -0.005166      0.018555
Cu	      6.13757      4.17160      6.14467         0.187668     -0.099956      0.034968
Ni	      6.16736      6.28575     12.33386        -0.464011     -0.014371      0.032773
Ni	      8.23936      8.33053     12.25504         0.097021     -0.036020     -0.101420
Ni	      4.16080      8.30492      8.26783        -0.082502      0.176495     -0.227823
Ni	      2.07694      4.27024      6.11342        -0.033402      0.100326      0.069523
O	      6.15233      6.29492     10.51854         0.004258     -0.021948     -0.423061
O	      2.02982      2.24223      2.06638         0.165458     -0.147110      0.113589
O	      3.97227      4.21236      1.93868         0.112328     -0.240858      0.266557
O	      3.99918      2.10283      4.03877        -0.075471      0.023815      0.199587
O	      6.16040      4.27445      4.21985         0.017075      0.156140     -0.260210
O	      6.21493      1.87913      6.23149        -0.064019      0.941295      0.066969
O	      8.26650      4.12412      6.30031        -0.309052      0.022256      0.117770
O	      2.06291      4.12764      3.98865         0.004046     -0.086988     -0.016572
O	      4.22491      6.26860      4.03944         0.172570      0.012353      0.124481
O	      4.15755      4.17422      6.34017        -0.243431     -0.024188     -0.130803
O	      6.14119      6.43737      6.09072         0.114593     -0.125220     -0.051234
O	      6.23812      4.11914      8.10703        -0.002241      0.108133      0.189621
O	      8.26961      6.14689      8.25957        -0.208283     -0.163332     -0.040271
O	      1.86201      6.29371      6.20067         0.891630     -0.008369      0.026990
O	      4.10883      8.55807      6.25442        -0.006010     -0.733932      0.022573
O	      4.11301      6.21759      8.24058        -0.016744     -0.297008      0.008353
O	      6.22884      8.37413      8.23092         0.285438      0.026109      0.044098
O	      8.26262      8.36300     10.18910        -0.057417      0.020373     -0.444493
