# total energy = -207.38306439 eV
 
CRYSTAL
PRIMVEC
0.001216 6.179214 6.450415 
6.099528 0.001114 6.449772 
4.051852 4.104759 0.015019 
PRIMCOORD
36 1
Li	     10.11239      4.14966      6.47828        -0.052058      0.019086     -0.073250
Li	      1.98330      2.03911      0.06940        -0.053236      0.099130     -0.041639
Li	      4.08273      2.07373      2.20358        -0.014335     -0.043278      0.102385
Li	      8.04689      4.16794      4.42470        -0.036358      0.063828      0.095781
Li	      8.11922      4.09064      8.44486         0.007548      0.053435     -0.117361
Li	      2.06253      1.99967      4.22523         0.052381      0.005968     -0.036077
Li	      6.18301      4.08822      6.44356         0.038105     -0.030513     -0.041775
Li	      6.07786      8.24577      6.57260        -0.001219     -0.067608      0.043361
Li	      6.13086      6.24377      8.56310        -0.007714     -0.013744     -0.001808
Ti	      6.13880      4.23046     10.72601         0.008030      0.465288      0.006704
Ti	      4.14091      6.21902      6.56668         0.603617     -0.014232      0.226797
Mn	      4.04079      4.08694      4.33307        -0.129759     -0.207055     -0.075081
Cu	      6.06408      4.09461      2.16979         0.150072     -0.019828     -0.054257
Cu	      6.12204      2.03839      8.44229        -0.177381      0.139719     -0.064925
Cu	      2.03605      6.17210      4.35055        -0.260894      0.007093      0.079279
Ni	      6.08819      2.05283      4.30526         0.014350     -0.139036      0.145144
Ni	      8.09725      6.14125      6.43255        -0.158996      0.121501     -0.086280
Ni	      8.11520      8.20011      8.61400         0.095917      0.068883     -0.108606
O	      8.29260      6.20408      8.44384        -0.024825     -0.152301      0.438903
O	      1.87261      1.97885      2.10628         0.136171     -0.136859      0.081911
O	      4.06165      4.16723      2.37561        -0.255236      0.079309      0.180497
O	      4.02568      2.19937      4.32604        -0.147127      0.119522     -0.197284
O	      5.93602      4.09931      4.25289         0.028687      0.162480     -0.122527
O	      6.03541      2.04896      6.31515         0.294207      0.054283      0.008612
O	      8.12715      4.26823      6.41910        -0.009624     -0.595288     -0.005642
O	      2.04110      4.16793      4.29632        -0.048822     -0.342144      0.049532
O	      4.00293      6.08695      4.50512         0.227202      0.093073      0.167540
O	      4.05323      4.08324      6.31724        -0.002989      0.408878     -0.039131
O	      6.01399      6.15029      6.53942        -0.443403      0.043658      0.018657
O	      6.11778      3.99867      8.78977         0.071051     -0.014855      0.170752
O	      2.12500      6.13477      6.60587        -0.229636      0.025233     -0.199971
O	      4.06673      8.11607      6.28021        -0.018014     -0.107101     -0.081846
O	      4.01432      6.16236      8.50466         0.321520      0.094207     -0.231778
O	      6.12459      8.28070      8.72099        -0.166895      0.105919     -0.237219
O	      6.15154      6.10574     10.70658        -0.097635     -0.532672     -0.045600
O	      8.21593      8.16518     10.72415         0.287298      0.186020      0.046202
