# total energy = -45.99492039 eV
 
CRYSTAL
PRIMVEC
-0.000619 2.002891 2.005097 
1.990080 2.042962 -4.050892 
-4.005621 2.039261 -2.040267 
PRIMCOORD
8 1
Li	     -1.91534      3.86546     -1.92109         0.107025      0.505821     -0.317160
Li	     -0.04103      2.04126     -2.04108         0.242996     -0.100375     -0.070746
Mn	      0.00007      0.00145      0.00057         0.504933     -2.734783      1.956904
Ni	     -1.94291      1.96212     -0.01661        -1.106538     -0.238196      0.774327
O	     -1.96025      4.06222     -4.06633        -0.637937      0.975840     -1.179395
O	     -2.06285      1.96304     -1.96035        -0.304364      0.370394     -1.010725
O	      0.10750      3.94297     -2.00223         0.238210      0.282794      0.009038
O	      0.00480      1.84342      0.10360         0.955675      0.938504     -0.162243
