# total energy = -207.30845179 eV
 
CRYSTAL
PRIMVEC
-0.012262 6.251275 6.435461 
6.160958 0.004586 6.418206 
4.092900 4.141816 0.017269 
PRIMCOORD
36 1
Li	      4.07513      2.03412      2.29589        -0.063354      0.034489      0.104047
Li	      4.03321      0.15125      4.26845         0.040295     -0.073333     -0.016057
Li	      6.05422      2.11837      4.32291         0.075727      0.052266      0.052704
Li	      8.23177      4.16963      8.46807         0.044834     -0.069145      0.021011
Li	      6.28486      6.12007      4.34178        -0.041249     -0.036336      0.029201
Li	      4.11005      2.05255      6.28369         0.015104      0.009319     -0.094371
Li	      6.16117      4.17456      6.43805        -0.043590      0.031123     -0.070233
Li	      4.10952      6.19471      6.56129        -0.004642     -0.004283      0.015940
Li	      4.09322      4.25296      8.52354         0.025743     -0.015680      0.036112
Ti	      6.12547      4.15275     10.61098        -0.022045     -0.088811     -0.273018
Ti	      6.21646      8.19803      6.55852         0.142450     -0.290342     -0.045300
Mn	      8.18411      6.24991     10.67657        -0.001241     -0.045881     -0.047702
Cu	     10.18720      4.17371      6.47406         0.000015      0.055328      0.179224
Cu	      2.02914      2.08390      0.05514         0.050601      0.276848      0.047703
Cu	      2.13521      0.04705      2.24141         0.175407     -0.075932      0.012260
Cu	      4.16699      4.04752      4.28970        -0.007959      0.030304     -0.019937
Ni	      6.15110      2.07095      8.52418        -0.065464      0.116433      0.024065
Ni	      6.09894      6.25981      8.55004        -0.162287     -0.046042     -0.152742
O	      3.99023      4.17467      6.33090        -0.184907     -0.005705      0.021739
O	      4.04220      6.24146      8.58344         0.366752      0.019082      0.014388
O	      2.03132      2.01578      2.02521         0.125832     -0.061456     -0.131434
O	      4.22878      4.17449      2.29316        -0.398308     -0.155132     -0.036567
O	      4.10544      2.13881      4.29270        -0.173605     -0.260890      0.058960
O	      6.08373      4.16114      4.21846         0.391536      0.171889      0.331376
O	      6.21400      2.00927      6.49447        -0.180243     -0.068044     -0.119253
O	      8.25539      4.05016      6.44589         0.078288      0.182484     -0.063911
O	      1.99449      4.28031      4.37259        -0.270149      0.108455      0.089013
O	      3.97196      6.30974      4.28505        -0.078487      0.140633      0.054807
O	      6.11151      6.34122      6.47890         0.059734      0.280522      0.043856
O	      6.14853      4.16648      8.72874        -0.004999      0.061652      0.148320
O	      8.18970      6.24278      8.79525        -0.021986      0.042356      0.013736
O	      1.95692      6.23330      6.27413        -0.037008     -0.200577     -0.175302
O	      4.12731      8.39138      6.26524         0.137294     -0.052131     -0.015953
O	      6.14550      8.37267      8.41157         0.024499     -0.040696     -0.105019
O	      6.25906      6.16164     10.59174        -0.053645      0.013130      0.135115
O	      8.26423      8.18367     10.80929         0.061058     -0.035897     -0.066776
