# total energy = -206.03630160 eV
 
CRYSTAL
PRIMVEC
-0.025175 6.059871 6.253889 
6.473809 -0.044415 6.271095 
4.300334 4.035540 -0.012890 
PRIMCOORD
36 1
Li	     10.66889      9.97686     12.45144         0.071104     -0.080584      0.010412
Li	      8.69726      8.08861     12.45867         0.036464     -0.105012     -0.011380
Li	      4.42405      8.11063      8.31483         0.182337     -0.058722      0.061755
Li	      8.62943     10.03257     10.43007        -0.061001     -0.000979     -0.185775
Li	      6.46680      8.05366     10.40976         0.040639      0.049784     -0.086885
Li	      4.36967      4.01802      4.12467         0.102122     -0.060974      0.084976
Li	      6.46122      4.01113      6.19457        -0.100529      0.026904     -0.072116
Li	      6.38552      8.06772      6.32674         0.008167      0.045917      0.161519
Li	      6.43970      6.02799      8.48132        -0.008826      0.146455     -0.020557
Ti	     10.64527      5.90760      8.20347         0.144153      0.039903     -0.232955
Ti	      4.25407      1.95715      6.09067        -0.212238      0.692445     -0.573593
Mn	      2.14033      2.00855      4.14700         0.049598     -0.273363      0.088751
Cu	      2.19955      6.05614      8.37507        -0.018973     -0.188632     -0.120218
Cu	      4.23761      8.07353      4.21753        -0.277178      0.355182      0.589725
Cu	      2.06082      6.03664      4.27364        -0.054186      0.283849      0.280879
Cu	      4.26215      6.03248      6.30253         0.167712     -0.068560      0.159791
Cu	      4.30843      4.08651      8.35578        -0.287973     -0.005105      0.188115
Ni	      8.51958      3.99919      8.31466         0.089234     -0.226685     -0.121698
O	      4.28044      7.98186      6.21239         0.067634      0.024870     -0.084345
O	      4.51502      6.01475      8.24650         0.158152      0.363097      0.071635
O	      6.62832      8.23121      8.39376        -0.385209     -0.256050     -0.031818
O	      6.61218      5.95180     10.49721         0.112190     -0.042086     -0.036918
O	      8.69239      7.99814     10.36851        -0.080907     -0.291055      0.003072
O	      1.92092      1.93980      2.17693        -0.237051      0.352052     -0.026433
O	      4.08493      4.09298      2.09515        -0.247030      0.020856      0.030167
O	      4.37251      2.03114      4.24525        -0.068648     -0.065868      0.405083
O	      6.47178      4.13011      3.99910        -0.071512      0.044173      0.340114
O	      6.34513      1.98595      6.35997        -0.108182     -0.088383      0.336805
O	      8.56408      4.10707      6.27312        -0.020258     -0.143947      0.393217
O	      1.97853      3.98043      4.11341         0.371519      0.090953     -0.522496
O	      4.08339      6.03795      4.20679        -0.045880     -0.024975     -0.249097
O	      4.34154      3.99945      6.33887         0.148284     -0.343056     -0.436254
O	      6.56861      6.02975      6.07814         0.308929      0.000780      0.017015
O	      6.44576      3.87313      8.46124         0.503341      0.155880     -0.134961
O	      8.66865      6.08273      8.19072         0.034911     -0.357299      0.023048
O	      2.28535      6.05766      6.51455        -0.310908     -0.011766     -0.298581
