# total energy = -233.62372139 eV
 
CRYSTAL
PRIMVEC
0.038543 6.221803 6.392332 
6.300191 0.004699 6.426779 
4.190845 4.160892 0.012271 
PRIMCOORD
36 1
Li	      6.27907      0.13795      6.31422        -0.007922      0.054788      0.061351
Li	      8.33196      8.30031     12.65298         0.013496      0.016045      0.083464
Li	      4.37706      6.10283     10.68103        -0.025140      0.035484      0.000944
Li	      6.44691      8.19986     10.78510        -0.026886      0.032361     -0.027381
Li	      6.25832      2.12466      8.45976         0.021998      0.031737     -0.014812
Li	      4.30439      2.11990      6.39388        -0.078370      0.018649     -0.051041
Li	      6.35772      8.31623      6.46426         0.016920     -0.074290      0.021257
Li	      8.37622      8.28550      8.69622        -0.006484      0.005843     -0.003684
Li	      6.35672      6.24007      8.77900        -0.021810      0.010154      0.018203
Ti	      4.38153      8.23627      8.50676         0.258640     -0.115873     -0.012119
Ti	      8.34706      4.26835      8.43598        -0.258171      0.151985     -0.278306
Mn	      6.28117      4.08401      6.41405         0.027447      0.060519      0.024554
Mn	      4.19732      6.19643      6.44929         0.124063     -0.083072     -0.041222
V	      2.11260      2.05255      4.23422        -0.065507     -0.079764      0.035202
Cr	      8.39793      6.26385     10.73050        -0.024487      0.002659      0.027181
Co	      2.10022      6.22960      8.46565         0.018863      0.031561     -0.000986
Ni	      4.19701      4.14995      4.26562        -0.049299      0.055086      0.029655
Ni	     10.45453      8.36333     10.72248         0.023694     -0.048439      0.092947
O	      2.14873      2.16531      2.29376         0.030796      0.042768     -0.258751
O	      4.10470      4.05611      2.13445         0.041772     -0.044438     -0.099831
O	      4.05039      2.11631      4.16073         0.154561     -0.121995     -0.071026
O	      6.22330      4.31152      4.19373         0.199674      0.020860     -0.044246
O	      6.26768      2.23760      6.41481        -0.009129     -0.038173     -0.004707
O	      8.31346      4.18421      6.56037         0.037454      0.020777      0.220915
O	      2.11512      4.09983      4.21296        -0.025678     -0.014672     -0.061618
O	      4.24310      6.24888      4.23194        -0.057917     -0.039819     -0.009432
O	      4.28041      4.24762      6.36920        -0.012321     -0.018001      0.072713
O	      6.24163      6.12720      6.18608        -0.046417     -0.027706      0.165020
O	      6.45904      4.18933      8.60312         0.181736     -0.006553     -0.041764
O	      8.43002      6.12876      8.68718        -0.005730     -0.167763      0.008146
O	      2.22696      6.19666      6.35442        -0.015222     -0.034026      0.028530
O	      4.22676      8.14506      6.54901         0.018401      0.080500      0.087526
O	      4.21252      6.34002      8.58939        -0.046019      0.061559      0.007037
O	      6.22303      8.31967      8.56006        -0.271397     -0.002350     -0.000837
O	      6.43676      6.18991     10.77108         0.017696      0.163497      0.034397
O	      8.46245      8.21381     10.68814        -0.133308      0.020106      0.002721
