# total energy = -235.97600744 eV
 
CRYSTAL
PRIMVEC
0.022990 6.374380 6.240686 
6.328651 0.013758 6.249625 
4.223225 4.259827 0.005425 
PRIMCOORD
36 1
Li	      8.40146      2.29059      6.20296         0.041332      0.009709      0.016983
Li	      6.31048      4.20728      2.16503         0.024746      0.036664     -0.009275
Li	      4.32543      8.54503      8.32953         0.001815     -0.029423      0.019516
Li	      8.44694      4.25048      4.21543         0.019352      0.020688     -0.044427
Li	      6.43653      2.26094      4.16561         0.002048      0.082925      0.031797
Li	      2.14747      4.24840      2.04893         0.008978      0.003360      0.003828
Li	      4.25434      4.22946      4.15582        -0.013523     -0.028041      0.004954
Li	      6.41523      4.26639      6.19028        -0.023754     -0.019402     -0.026448
Li	      8.36361      6.34242     10.42390         0.025519      0.006292     -0.001296
Ti	      2.19063      2.02740      4.10384         0.231780     -0.387854     -0.231107
Ti	      4.07157      6.39475      6.31927        -0.328517      0.161660      0.327446
Mn	      4.29452      2.12320      6.19901        -0.057799      0.072882     -0.004718
Mn	      8.43598      8.51224      8.40295        -0.123803     -0.024728     -0.011039
V	      4.26862      6.24940      2.01715         0.002389     -0.017582     -0.116563
Cr	      4.20105      8.49107      4.18679        -0.045278     -0.058172      0.138128
Co	      6.30848      8.48673      6.27127         0.001787      0.164663     -0.132317
Co	      6.34599      6.38577      8.38476         0.182933      0.032930      0.074626
Cu	      6.36464      6.44970     12.39695         0.161974      0.089214      0.093240
O	      1.99022      2.18749      2.18907         0.091734     -0.003421      0.169160
O	      4.25542      4.44659      2.04221         0.004450     -0.088957      0.121841
O	      4.09508      2.21839      4.23172        -0.135670     -0.036158      0.005694
O	      6.32933      4.43680      4.16033         0.034673      0.343077      0.006821
O	      6.44189      2.30765      6.39615         0.013066      0.187147     -0.029043
O	      8.58906      4.47817      6.20634        -0.047051     -0.059415      0.000085
O	      1.98611      4.11283      4.20991         0.073257     -0.047788      0.219805
O	      4.26404      6.39813      4.17159         0.010317      0.038503     -0.078331
O	      4.23895      4.23777      6.36887        -0.058611     -0.026646     -0.059497
O	      6.18704      6.35494      6.19770         0.039820      0.136091      0.140092
O	      6.22465      4.18349      8.43187         0.089184      0.116092     -0.065453
O	      8.56449      6.33935      8.17967         0.114663     -0.007076      0.054741
O	      2.17288      6.30875      6.24047         0.138787     -0.242813     -0.024319
O	      4.13429      8.30967      6.20630         0.046650     -0.241123     -0.041750
O	      4.25490      6.41899      8.17584        -0.261891      0.023856     -0.169825
O	      6.46930      8.43983      8.36017        -0.209745     -0.182755     -0.122589
O	      6.37116      6.22682     10.44031        -0.045239     -0.021903     -0.328530
O	      8.50766      8.51186     10.30270        -0.010372     -0.002494      0.067775
