# total energy = -236.36576929 eV
 
CRYSTAL
PRIMVEC
0.015417 6.273888 6.529622 
6.208247 0.021412 6.522241 
4.135511 4.174614 0.018161 
PRIMCOORD
36 1
Li	      6.14108      0.13524      6.48627         0.082573     -0.036651      0.057091
Li	      6.23641      2.14159      4.51432        -0.013323      0.021217      0.033510
Li	      6.15536      2.13345      8.58108        -0.026556     -0.001104     -0.007373
Li	      8.29588      4.21165      8.58241        -0.005558      0.021847     -0.129275
Li	      6.14932      6.23054      4.35745        -0.062674      0.057127      0.048644
Li	      4.30440      2.03089      6.55412        -0.013294      0.037261      0.037137
Li	      6.24007      4.10704      6.46266        -0.077166      0.029089     -0.002342
Li	      8.29576      6.31378     10.81323         0.032657     -0.054002      0.018314
Li	      8.33941      8.33252      8.74551        -0.001965     -0.023083     -0.045023
Ti	      4.05772      2.13164      2.41187        -0.187337      0.259279     -0.046926
Ti	      6.39106      6.26460      8.71107         0.627665      0.017481     -0.387630
Mn	      8.18906      2.15770      6.53811         0.202060     -0.490295      0.035655
Mn	      4.12607      6.24683      6.56267         0.036195     -0.133236     -0.238117
V	      6.22897      4.16115     10.75663         0.579571     -0.298414      0.228906
Cr	      4.14758      4.25166      4.35097        -0.329287      0.296096      0.262931
Co	      6.18788      8.37220      6.54339         0.119944     -0.034092     -0.086835
Co	      8.20918      4.20032      4.44052         0.014173     -0.018982      0.140440
Ni	      6.19922      4.16840      2.25405        -0.014339     -0.049573     -0.225703
O	      2.20045      2.07620      2.18950         0.393836      0.064958      0.098408
O	      4.13739      4.07701      2.31038        -0.081931     -0.326599     -0.055653
O	      4.10772      2.21306      4.28955         0.033836     -0.287963     -0.188101
O	      6.12695      4.18504      4.27810         0.283815     -0.029175      0.249731
O	      6.32293      2.08235      6.52077        -0.127341      0.003810     -0.032951
O	      8.27841      4.07545      6.48332         0.018102      0.245252     -0.321672
O	      1.96086      4.19316      4.46535        -0.046650      0.026713     -0.288001
O	      4.14549      6.29799      4.32963        -0.016566     -0.058525     -0.044181
O	      4.10400      4.30526      6.36060         0.176715      0.069191      0.073168
O	      6.07193      6.27105      6.73863        -0.077047     -0.169999      0.115800
O	      6.24412      4.28908      8.83932         0.004601      0.181525     -0.204538
O	      8.19913      6.32279      8.63642        -0.503066     -0.025260      0.015760
O	      2.16522      6.31432      6.65106        -0.057442      0.316292     -0.010360
O	      4.09158      8.26344      6.50140        -0.313245      0.047205      0.120598
O	      4.17766      6.39007      8.78137         0.085588      0.131026      0.323909
O	      6.12627      8.30992      8.64554        -0.189907     -0.148582      0.325566
O	      6.23425      6.19303     10.68296        -0.251909      0.155689      0.132621
O	      8.52261      8.33791     10.87715        -0.294728      0.204473     -0.003504
