# total energy = -239.11621016 eV
 
CRYSTAL
PRIMVEC
0.014990 6.345748 6.173075 
6.321542 0.001074 6.187036 
4.201111 4.226477 0.014360 
PRIMCOORD
36 1
Li	      4.19141      2.13053      2.08671        -0.036154      0.005830      0.042361
Li	      4.22809      6.34652     10.27689        -0.064495      0.028054     -0.049879
Li	      6.33566      8.43752     10.29321        -0.011671     -0.005358     -0.043833
Li	      6.36557      2.18400      8.26701         0.039047      0.032380      0.039503
Li	      2.03326      4.17309      2.11142        -0.060903     -0.028795      0.002642
Li	      2.07866      2.13732      4.06958        -0.023011     -0.032296     -0.052885
Li	      6.32194      4.22964      6.22344        -0.008705      0.056594     -0.013971
Li	      6.34584      4.23686     10.26158        -0.007501      0.027288      0.017270
Li	      6.29325      8.41847      6.20005         0.013681     -0.063517      0.035905
Ti	      8.46192      2.20956      6.19550         0.060779      0.124747      0.238173
Ti	      4.26431      2.03456      6.14051        -0.011165     -0.088277     -0.218733
Mn	      6.26413      4.20921      2.10255         0.024373      0.015273      0.049003
Mn	      6.31625      6.33760      8.31640        -0.057650      0.039409     -0.051476
V	      4.15875      4.23804      4.11851         0.282741      0.117091     -0.017410
Cr	      8.44040      8.44529      8.30409        -0.065508      0.068736     -0.060351
Co	      2.12533      6.34072      4.11876         0.213881     -0.198501      0.050489
Co	      4.32550      6.39480      6.16081         0.015530      0.046820     -0.023024
Co	      6.31003      6.33859     12.31000         0.058582      0.021062     -0.022844
O	      2.07923      2.18632      1.88603        -0.009478     -0.027269     -0.301912
O	      4.32348      4.18452      2.11815        -0.107410      0.005944     -0.155883
O	      4.17785      2.18838      4.25229         0.028602     -0.059262      0.167631
O	      6.11242      4.24021      4.02687         0.046137     -0.039842     -0.004448
O	      6.28888      2.07120      6.16517        -0.067877     -0.102900      0.028856
O	      8.37316      4.25162      6.16180        -0.060167      0.016795      0.007313
O	      2.33808      4.23443      4.11099        -0.339609     -0.089952      0.057297
O	      4.20117      6.22984      4.17626         0.121430     -0.018871      0.030522
O	      4.27535      4.10711      6.17340        -0.017796     -0.074202      0.106660
O	      6.44449      6.33013      6.30784         0.125519     -0.005930      0.026170
O	      6.21469      4.39192      8.28639         0.050808     -0.062428     -0.008026
O	      8.52338      6.42127      8.16763         0.012816      0.015722      0.054748
O	      2.12746      6.46106      6.26193         0.044640      0.119874     -0.158738
O	      4.08161      8.48797      6.15494        -0.058646      0.054098      0.030913
O	      4.06480      6.24341      8.23189         0.052220     -0.029446     -0.004980
O	      6.41314      8.31826      8.25035        -0.000623      0.011786     -0.009916
O	      6.38762      6.33587     10.26667        -0.124499      0.020861      0.110764
O	      8.41033      8.45490     10.35037        -0.057915      0.098479      0.102088
