# total energy = -231.41180685 eV
 
CRYSTAL
PRIMVEC
0.021543 6.281892 6.243116 
6.382410 -0.004227 6.268845 
4.246923 4.196781 0.005351 
PRIMCOORD
36 1
Li	      4.31700     10.38719      6.25225         0.052881     -0.019501     -0.053390
Li	      6.28451      4.28026      2.14305         0.059458     -0.012489     -0.064540
Li	      4.18709      2.12971      2.05611         0.104679     -0.025411      0.087438
Li	      8.53229     10.32888     10.46800         0.053270      0.048438     -0.031935
Li	      0.15356      2.07218      2.02668        -0.084675     -0.029807      0.033477
Li	      2.16251      2.05465      4.02012         0.034177      0.016818      0.047397
Li	      8.48643      6.34045     10.46699         0.083782      0.000799      0.003620
Li	      2.10067      4.28956      6.22674         0.049326      0.017400      0.070329
Li	      8.49262      8.38420      8.49333         0.012965      0.013304      0.024385
Ti	      4.08680      6.34697      6.32420        -0.300388      0.288182     -0.298750
Ti	      6.37845      6.42028      8.45403        -0.059226      0.363195      0.189561
Mn	      8.46440      6.30568      6.25638        -0.059073     -0.102165     -0.269466
Mn	      6.37407      4.16808      6.26464        -0.053645      0.015722      0.120720
V	      4.19754      4.24784      4.10548        -0.342256     -0.343580     -0.192481
Cr	      2.16334      4.14225      2.04967        -0.113602     -0.022374      0.121693
Cu	      2.18342      8.39197      6.23993        -0.043766     -0.095535      0.078262
Ni	      6.45314      8.39666     10.44461        -0.120268     -0.094785     -0.045152
Ni	      4.26029      8.32680      4.14359        -0.032083     -0.124710     -0.002819
O	      2.15619      2.17029      1.98811        -0.021313      0.052222      0.029699
O	      4.18069      4.19914      2.20327         0.093393      0.094499      0.137937
O	      4.27124      2.29781      4.30059         0.137834     -0.602202      0.095021
O	      6.23807      4.18791      4.25214        -0.175770      0.089908      0.084103
O	      6.16392      2.23133      6.25870        -0.000961      0.085754      0.106939
O	      8.54853      4.12105      6.30320        -0.021270      0.261688     -0.052464
O	      2.22402      4.18726      4.04691         0.258902      0.077177      0.152854
O	      4.26980      6.15626      4.26710         0.160962      0.957590      0.204658
O	      4.18643      4.33686      6.16973         0.009330     -0.079941     -0.239065
O	      6.45023      6.13501      6.34209        -0.065839     -0.109459      0.030478
O	      6.48350      4.22334      8.31048         0.074170     -0.017941     -0.258632
O	      8.38679      6.22414      8.20735        -0.046705     -0.089776      0.179212
O	      2.23770      6.34747      6.32050         0.215058     -0.230537      0.029577
O	      4.46131      8.19199      6.14956         0.030783     -0.060268      0.205928
O	      4.42370      6.25836      8.22874         0.124236     -0.010992     -0.062971
O	      6.42056      8.26111      8.39334         0.022000     -0.353207     -0.154394
O	      6.42118      6.23541     10.32525        -0.054286     -0.013446     -0.215654
O	      8.54090      8.34720     10.52222         0.017918      0.055431     -0.091575
