# total energy = -229.88429182 eV
 
CRYSTAL
PRIMVEC
0.059588 6.334674 6.412588 
6.214196 0.075912 6.396413 
4.191899 4.261250 0.001229 
PRIMCOORD
36 1
Li	      8.38770      8.52496     12.65305        -0.018557     -0.005985      0.073876
Li	      6.38851     10.58113      8.59432         0.002556     -0.013508     -0.044896
Li	      8.30099     10.50908     10.69073         0.018623      0.088672      0.037964
Li	      6.22612      6.31344      4.32675         0.013381      0.029997      0.051791
Li	      6.24722      4.32483      6.29957         0.024669      0.026042      0.065938
Li	     10.27873      8.47253     10.69837         0.010671     -0.047564     -0.019298
Li	      8.42866      6.58379     10.69897         0.034332     -0.021668     -0.021589
Li	      4.16337      6.34963      6.39217        -0.033229     -0.039453      0.046901
Li	      8.34733      8.60417      8.64024         0.009306      0.025635     -0.024279
Ti	      6.35691      6.35993     12.63059         0.214256     -0.080376     -0.045250
Ti	      2.08235      4.21316      2.26416        -0.049332      0.004010      0.268159
Mn	      4.21940      6.36050      2.20890        -0.000901      0.003124     -0.169397
Mn	      4.14164      2.18755      6.38729        -0.037405     -0.008654     -0.020682
V	      4.16991      2.08973      2.23154        -0.047362      0.033055     -0.032120
Cr	      6.26452      6.39758      8.58211         0.004811     -0.076394      0.056460
Cu	      6.43991      8.63092     10.68240        -0.054454     -0.078780      0.050332
Cu	      4.26553      4.36881      4.34883        -0.071980      0.251638      0.041908
Cu	      2.13229      4.25651      6.37407        -0.055319      0.042894     -0.074241
O	      8.33644      8.57449     10.68187        -0.023163     -0.009840     -0.024215
O	      2.12255      2.23660      2.05530         0.131193      0.108976      0.009153
O	      4.10795      4.17053      1.94804        -0.020070     -0.111475     -0.249865
O	      4.17300      2.21707      4.06795        -0.004510     -0.117766     -0.058517
O	      6.18382      4.25306      4.28956         0.037206     -0.095447     -0.005771
O	      6.14258      2.08771      6.63047         0.029110     -0.035034     -0.200107
O	      8.42227      4.48373      6.44664         0.055681     -0.026149      0.007459
O	      2.25982      4.22800      4.09269        -0.057350     -0.041752     -0.371804
O	      4.25354      6.36607      4.08982         0.023477      0.036847      0.402939
O	      4.10908      4.11794      6.47036         0.074438     -0.017872      0.138115
O	      6.36818      6.44996      6.53811         0.035130     -0.064683     -0.046836
O	      6.36984      4.34473      8.53992         0.137239      0.127061      0.079185
O	      8.33354      6.30430      8.59052        -0.093772     -0.082172      0.018029
O	      2.02369      6.30350      6.39189        -0.192437      0.063715     -0.049208
O	      4.25750      8.60832      6.50635        -0.081813      0.135966     -0.100146
O	      4.27747      6.52061      8.48965        -0.022992     -0.050524      0.056585
O	      6.15622      8.37348      8.54898         0.033467      0.068532      0.103760
O	      6.26494      6.46184     10.72539        -0.024900     -0.021068      0.049667
