# total energy = -236.44997468 eV
 
CRYSTAL
PRIMVEC
0.012956 6.216637 6.428302 
6.294475 0.011819 6.429770 
4.194037 4.143089 0.010133 
PRIMCOORD
36 1
Li	      4.30620      8.22089      8.60422         0.021879     -0.044916     -0.013333
Li	      6.29394      8.27961     10.66338         0.002448     -0.011066      0.003327
Li	     10.40286      6.30177      8.62609        -0.009215      0.041184     -0.013333
Li	      8.22115      4.30087      8.62111        -0.085773      0.029250     -0.010673
Li	      8.25960      6.35347      6.50784        -0.011580     -0.012144     -0.014994
Li	      6.32133      4.12940     10.63973        -0.028008      0.005022      0.012256
Li	      6.41522      8.20822      6.50764        -0.005598     -0.022903      0.000625
Li	      4.29092      6.13891      6.38504         0.010911     -0.010614     -0.015840
Li	      6.34671      6.25892      8.42999        -0.065882      0.021055     -0.056960
Ti	      4.17838      4.20499      0.12045        -0.098150      0.036718     -0.052053
Ti	      2.22174      8.25063      6.54575         0.273932      0.049422     -0.075555
Mn	      6.35593     10.26923      8.62269         0.096815     -0.045683      0.158367
Mn	      6.18170      4.18278      6.46118         0.091813      0.035446      0.107777
V	      4.29377      6.23425     10.71562        -0.079390     -0.041876      0.210232
Cr	      8.41641      6.21764     10.64252        -0.064965      0.048494      0.118674
Fe	      2.05418      2.21385      4.35150         0.013910     -0.182166     -0.142798
Co	      4.17816      4.10118      4.23905        -0.038314      0.049822      0.157560
Cu	      4.18723      4.11399      8.50919         0.075817     -0.077655      0.036468
O	      2.11004      1.91942      2.07084         0.014257     -0.067896     -0.078508
O	      4.33892      4.10154      2.03439         0.124253     -0.032364     -0.092003
O	      4.11236      2.00486      4.22655        -0.024393      0.054372     -0.001199
O	      6.42721      4.17919      4.44272        -0.315562      0.007512      0.017260
O	      6.42277      1.99103      6.47855         0.034795     -0.179101      0.033360
O	      8.49310      4.08367      6.47799         0.079916     -0.104077      0.040711
O	      2.03243      4.16347      4.17366         0.133078      0.172201     -0.042734
O	      4.18832      6.19453      4.21753        -0.015203     -0.047369     -0.003652
O	      4.22356      4.11898      6.24471        -0.045739      0.023242     -0.199168
O	      6.27908      6.23866      6.30644         0.008773      0.022343      0.060391
O	      6.17289      4.19268      8.34068         0.108226     -0.002200     -0.081066
O	      8.35772      6.28792      8.71106        -0.032478     -0.021268     -0.034855
O	      2.03355      6.27779      6.33446         0.012137      0.092147     -0.004136
O	      4.09604      8.39862      6.49674        -0.224713      0.066552      0.036713
O	      4.10673      6.14170      8.68768         0.063419      0.112124     -0.343780
O	      6.37535      8.37935      8.60664        -0.093670      0.100930      0.011207
O	      6.30511      6.23936     10.90481         0.128460     -0.009088      0.002573
O	      8.44320      8.31109     10.97070        -0.056206     -0.055449      0.269140
