# total energy = -89.50666330 eV
 
CRYSTAL
PRIMVEC
-0.000001 2.070991 2.131855 
4.070814 0.000476 -0.000520 
0.001827 8.766993 -9.023556 
PRIMCOORD
16 1
Li	      4.06861      4.55252     -0.52680        -0.000090     -0.017669      0.008757
Li	      2.03409      4.56744     -2.58758        -0.000194     -0.019492     -0.005364
Li	      4.07101      6.48425     -2.42875        -0.001050     -0.023034      0.025711
Li	      4.07163      6.35046     -6.50796        -0.000182     -0.021185      0.020035
Mn	      4.07089      8.69250     -8.88043         0.000726      0.050490     -0.034713
Mn	      2.03327      2.15890     -0.16280         0.000539      0.153118     -0.081672
Ni	      2.03611      6.50612     -4.52928         0.000150     -0.013963     -0.022157
Ni	      2.03591      8.52159     -6.63358        -0.000871      0.049573     -0.040620
O	      2.03618      8.62226     -4.66302        -0.000571     -0.044472      0.089854
O	      4.07117      8.79766     -6.91921         0.001410      0.041126     -0.027436
O	      2.03579      4.57506     -4.69843        -0.000365     -0.039736      0.015642
O	      4.07173      6.51644     -4.59360        -0.001249      0.050483     -0.030390
O	      2.03299      4.01436      0.00092         0.000406     -0.088335      0.073492
O	      4.06963      4.35338     -2.40270         0.000432     -0.002868     -0.026492
O	      2.03546      8.83015     -8.92658         0.000149      0.002592     -0.042716
O	      4.06873      1.91813      0.29874         0.000762     -0.076629      0.078070
