# total energy = -46.17963216 eV
 
CRYSTAL
PRIMVEC
-0.000622 2.013215 2.015433 
2.000338 2.053493 -4.071773 
-4.026269 2.049773 -2.050784 
PRIMCOORD
8 1
Li	     -1.93514      3.90541     -1.94095         0.095549      0.407928     -0.263970
Li	     -0.04145      2.06236     -2.06218         0.191924     -0.076332     -0.051795
Mn	      0.00007      0.00146      0.00058         0.414090     -2.237615      1.643944
Ni	     -1.96300      1.98240     -0.01678        -0.883562     -0.191379      0.607139
O	     -1.98051      4.10421     -4.10836        -0.539288      0.839350     -1.009422
O	     -2.08417      1.98333     -1.98062        -0.249728      0.336328     -0.824544
O	      0.10861      3.98372     -2.02292         0.202794      0.206516      0.026889
O	      0.00485      1.86247      0.10467         0.768221      0.715205     -0.128241
