# total energy = -239.69518637 eV
 
CRYSTAL
PRIMVEC
0.004535 6.266976 6.393570 
6.296277 -0.009782 6.408275 
4.191726 4.181709 -0.001022 
PRIMCOORD
36 1
Li	      8.38343      8.37660     12.71293         0.004770     -0.019282      0.029271
Li	      6.33384      8.28602     10.72787         0.016326      0.005675      0.033859
Li	      8.23058      4.30756      8.55080        -0.006969     -0.045294      0.014974
Li	      6.14312      6.31250      4.33111        -0.007832      0.014844      0.022234
Li	      4.17267      4.27428      4.33504        -0.004774     -0.007492      0.013002
Li	      8.37125      6.23031      6.44897        -0.021195      0.017997      0.003909
Li	      6.28329      4.13374     10.61454         0.006835      0.005252     -0.042635
Li	      4.22890      6.26170      6.20671         0.015182      0.000002      0.011205
Li	      6.41793      6.15169      8.57389        -0.029919      0.018287     -0.026881
Ti	      6.28203      4.22302      2.18652         0.103871      0.224552      0.184063
Ti	      4.17743      2.11544      2.22181        -0.196632     -0.034269      0.265649
Mn	      6.26574      0.04429      6.36958        -0.034210     -0.000660     -0.058820
Mn	      6.28800      4.18218      6.35859        -0.022896     -0.008759     -0.086128
V	      2.12182      4.07483      6.27739         0.028894     -0.065086     -0.056008
Cr	      4.27477      6.24287     10.64607         0.005893     -0.099498      0.018175
Fe	      8.49650      8.19599      8.54431        -0.195254      0.080045      0.009039
Co	      4.17649      6.26638      2.20598         0.128040      0.091052      0.095232
Co	      8.42655      6.31882     10.69571         0.007513     -0.067991     -0.112030
O	      2.21753      2.00448      2.10293         0.180708     -0.238270      0.064759
O	      4.29378      4.06603      2.21356         0.037221     -0.002423      0.071345
O	      4.25170      2.01487      4.07731         0.022359     -0.037767     -0.244962
O	      6.37816      4.16762      4.11684         0.007684     -0.007650     -0.166340
O	      6.30598      1.97997      6.49250        -0.012528     -0.016625     -0.085784
O	      8.43033      4.16139      6.24389         0.116994      0.018646     -0.014369
O	      2.09731      4.21937      4.49878        -0.012142     -0.046543     -0.029760
O	      4.15106      6.27154      4.21376        -0.062075     -0.036559     -0.039178
O	      4.09118      4.14813      6.52692         0.014435      0.050479     -0.015047
O	      6.26110      6.36836      6.39792         0.030406      0.001678     -0.052228
O	      6.24420      4.17737      8.47773         0.100832     -0.103113      0.008224
O	      8.39583      6.26702      8.57356        -0.084081     -0.004855      0.016392
O	      2.07029      6.21249      6.55974        -0.082530      0.028352      0.007836
O	      4.29892      8.45869      6.54680        -0.019108      0.016015      0.086527
O	      4.10111      6.32769      8.58085        -0.055157      0.058549      0.047597
O	      6.24422      8.45508      8.41043         0.002078      0.092532      0.047211
O	      6.27180      6.26184     10.66386         0.004990     -0.004845     -0.047621
O	      8.37527      8.41139     10.52567         0.012270      0.123022      0.027286
