# total energy = -233.12545051 eV
 
CRYSTAL
PRIMVEC
0.054964 6.220891 6.306140 
6.345603 0.003642 6.357212 
4.241544 4.193085 -0.008732 
PRIMCOORD
36 1
Li	      6.37555      4.12975      2.23649         0.061277     -0.115625      0.025331
Li	      4.31951      8.20378      8.49282         0.082028     -0.160878      0.097060
Li	      8.30290      4.29190      4.15823        -0.091730      0.008339     -0.132724
Li	      6.27091      2.18285      4.14713        -0.033255     -0.013967     -0.121772
Li	      2.17693      4.18769      2.08609        -0.042699      0.025388      0.044718
Li	      6.45378      6.18935      4.27374         0.010295      0.000448      0.140045
Li	      6.34527      4.22811      6.20312        -0.082101      0.090212      0.001179
Li	      4.29990      8.31441      4.20070         0.040651      0.014367     -0.111859
Li	      6.42487      8.26418      6.41374         0.130635     -0.187003      0.108935
Ti	      0.15361      2.15702      2.10647        -0.073188      0.637352      0.320197
Ti	      2.08564      6.13547      4.22407        -0.312845     -0.236836     -0.251603
Mn	      4.33941      4.11979      4.18198        -0.038638     -0.095356      0.179025
Mn	      8.44523      8.40231      8.43862        -0.148737      0.202299      0.055825
V	      8.59533      8.42103     12.57919        -0.991870     -0.357270     -0.097872
Cr	      8.43671      6.24632      6.28651        -0.383993      0.485585     -0.013596
Fe	      4.28997     10.35287      6.33642         0.253076      0.164629     -0.204763
Cu	      6.31536      6.26256      8.43481        -0.331228     -0.144715      0.342865
Ni	      4.34630      6.21557      6.34819         0.238425     -0.261719      0.069356
O	      2.03347      2.17267      1.90973        -0.118534      0.011879     -0.131118
O	      4.26777      4.36389      2.06423        -0.022365     -0.081737     -0.463546
O	      4.22384      2.08865      4.33798         0.006834     -0.045441     -0.007768
O	      6.18948      4.19122      4.19608        -0.001878      0.018396      0.006357
O	      6.37574      2.11111      6.47169        -0.173584     -0.668099     -0.129709
O	      8.46508      4.17081      6.28323         0.809474      0.097075      0.204632
O	      2.29509      4.28083      4.16592        -0.000929      0.270889      0.010284
O	      4.21648      6.27296      4.10827        -0.027608      0.035983     -0.069538
O	      4.25798      4.08711      6.30043        -0.001781     -0.108845     -0.099661
O	      6.44651      6.24783      6.42605         0.120790     -0.081287     -0.672379
O	      6.24016      4.11978      8.51944         0.130505     -0.724842      0.041892
O	      8.65146      6.36859      8.47550         0.362346     -0.136056     -0.000145
O	      2.22073      6.33825      6.14981        -0.403482     -0.099774      0.201657
O	      4.12319      8.25915      6.35319         0.700144      1.067201     -0.068350
O	      4.16337      6.12081      8.39681        -0.118676      0.042154      0.051222
O	      6.52915      8.23992      8.45832         0.117723      0.467506     -0.021328
O	      6.56121      6.17757     10.54026         0.291227     -0.040947      0.605628
O	      8.47431      8.26950     10.73290         0.043689     -0.079304      0.091521
