# total energy = -233.85659508 eV
 
CRYSTAL
PRIMVEC
0.007702 6.482286 6.281097 
6.273028 0.035151 6.254599 
4.181738 4.303382 0.023354 
PRIMCOORD
36 1
Li	      6.20428      4.35735      2.22068        -0.036059      0.004691     -0.008822
Li	      4.11266      2.20814      2.17925        -0.039844     -0.015460      0.026190
Li	      8.20955      4.42678      4.20663        -0.021689      0.021224     -0.000637
Li	      4.22234      6.37989      2.12944         0.008829     -0.054036      0.021591
Li	      2.17455      2.01861      4.09123        -0.006186     -0.098815     -0.049247
Li	      4.21416      4.22234      4.12083        -0.010889     -0.079436      0.036327
Li	      6.30996      4.29820      6.16119        -0.026462     -0.026959     -0.022478
Li	      2.11084      4.37126      6.27476         0.008008      0.057032      0.004266
Li	      6.28706      6.52501      8.33254         0.026900      0.056324     -0.002735
Ti	      4.39602      6.50754      6.30253         0.235694      0.055530     -0.038490
Ti	      4.10085      4.38534      8.27412        -0.283574      0.040078     -0.258049
Mn	      6.15330      2.24188      4.18389         0.094667      0.042836      0.056682
Mn	      2.09241      4.26963      2.10550         0.082964     -0.057088     -0.240060
V	      6.31283      4.42305     10.42724        -0.133748     -0.101513      0.172552
Cr	      8.41062      6.53862     10.43312         0.133025      0.050612      0.031889
Fe	      2.01297      2.11302      0.17904         0.087221     -0.179883     -0.047109
Cu	      4.16842      4.30861      0.10087         0.022661      0.008057     -0.033504
Cu	      4.16094      2.17815      6.21488        -0.185758      0.044338      0.174602
O	      2.06616      2.07439      2.07180        -0.008776      0.058523      0.069932
O	      4.01691      4.28668      2.03160        -0.033401      0.001963      0.103580
O	      4.13999      2.11339      4.28814        -0.106724     -0.034674     -0.123286
O	      6.22485      4.09575      4.17214        -0.003398     -0.044875      0.008368
O	      6.28583      2.21008      6.23853        -0.155642      0.133573     -0.196098
O	      8.36041      4.14285      6.37997        -0.017996      0.072642      0.153571
O	      2.09762      4.51268      4.07231        -0.111582      0.099472     -0.081486
O	      4.15660      6.60631      4.28552        -0.109247      0.135143      0.117267
O	      4.18589      4.52361      6.36252         0.023021      0.249273      0.335717
O	      6.23340      6.52330      6.24480        -0.273565      0.002843      0.025702
O	      6.32284      4.41465      8.46481         0.056542      0.043253     -0.022726
O	      8.40677      6.68643      8.34431        -0.031635      0.126519      0.088802
O	      2.17548      6.56034      6.18282         0.108251     -0.096662     -0.057888
O	      4.15853      8.48728      6.24167         0.069866     -0.276963      0.006016
O	      4.24076      6.35829      8.25274         0.042945     -0.191685     -0.161923
O	      6.41997      8.63578      8.41215         0.349607      0.012068      0.023544
O	      6.36988      6.54256     10.56554         0.101535     -0.002689     -0.074235
O	      8.42175      8.59332     10.40427         0.144438     -0.055255     -0.037828
