# total energy = -233.69666855 eV
 
CRYSTAL
PRIMVEC
-0.001722 6.302688 6.408569 
6.247473 -0.008314 6.415121 
4.154993 4.196112 0.004407 
PRIMCOORD
36 1
Li	      4.14219      2.11314      2.23374         0.002403     -0.023043      0.058625
Li	      6.22577      8.36814     10.69686         0.019162      0.029916      0.035883
Li	      4.17606      6.37088      2.31001         0.022629      0.025461     -0.068347
Li	      1.99659      4.17833      2.35657        -0.010313     -0.010263      0.007842
Li	      6.09212      6.40070      4.29858         0.038792      0.004492     -0.005367
Li	      4.06338      4.34936      4.27507        -0.008221     -0.044164     -0.046021
Li	      6.14610      4.29992      6.47347         0.036924      0.033713     -0.004179
Li	      0.07874      4.03410      4.16401        -0.009175      0.034767     -0.035898
Li	      4.29092      6.19988      6.11920         0.041868     -0.045165     -0.065588
Ti	      4.14512      4.20466      0.11007        -0.121232      0.021589      0.295027
Ti	      2.10541      8.38624      6.45059         0.089239      0.057062      0.271521
Mn	      6.22116      4.16168      2.26289         0.054343     -0.028633      0.132142
Mn	      6.24927      6.26476      8.56164        -0.087978      0.005416     -0.058274
V	      8.28869      4.20495      4.30182        -0.016356     -0.137232     -0.010752
Cr	      2.06595      4.17999      6.32072        -0.010711      0.041192      0.047904
Fe	      4.14273      2.21765      6.35332         0.086145     -0.146707      0.077631
Ni	      2.20425      6.25439      4.18504        -0.221883      0.044739     -0.052818
Ni	      4.21224      4.17508      8.56425        -0.035833      0.072798      0.014220
O	      2.09733      2.06316      1.88683        -0.004801      0.052204     -0.267824
O	      4.15360      4.15110      1.95238        -0.086450     -0.012370     -0.267335
O	      4.20916      1.95658      4.40880         0.021714      0.160917     -0.040202
O	      6.47515      4.15278      4.32513        -0.154122     -0.026604      0.041237
O	      6.30383      1.96827      6.42068        -0.006072     -0.095502     -0.006727
O	      8.39357      4.10706      6.35505         0.073696     -0.020000      0.031642
O	      2.07304      4.25422      4.37092        -0.047236     -0.108875      0.009848
O	      4.15501      6.27485      4.22197         0.213166      0.054670     -0.061189
O	      4.08490      4.15201      6.42809         0.020088      0.166513     -0.101712
O	      6.30376      6.40199      6.36514        -0.088123     -0.049103     -0.007785
O	      6.21872      4.34950      8.51150         0.135078      0.018597      0.008579
O	      8.23782      6.30796      8.46461         0.020229     -0.092119     -0.070805
O	      1.99276      6.33062      6.34086        -0.045830      0.009481      0.038098
O	      4.09557      8.49658      6.39823        -0.027858      0.011797     -0.030181
O	      4.24242      6.27618      8.71211         0.049035      0.106085      0.007868
O	      6.26211      8.31172      8.42676        -0.092146     -0.057654     -0.027443
O	      6.09496      6.30220     10.83043         0.158844     -0.002792      0.031541
O	      8.30979      8.42843     10.79666        -0.009012     -0.051183      0.118840
