# total energy = -237.45147239 eV
 
CRYSTAL
PRIMVEC
-0.002553 6.298526 6.396489 
6.326311 -0.018408 6.411976 
4.209478 4.201577 -0.004276 
PRIMCOORD
36 1
Li	      4.25987      6.27425     10.68081        -0.030340      0.011072      0.039518
Li	      8.29240      4.29068      8.51663         0.023144      0.010669     -0.045981
Li	      6.32847      6.28622      4.28950         0.013448     -0.033415      0.073375
Li	      8.41646      6.20239      6.52769         0.026070     -0.040321      0.044898
Li	      6.38581      4.23779      6.50424         0.030092      0.018251      0.016529
Li	      6.28548      4.26114     10.50737        -0.035746      0.057414     -0.002331
Li	      8.38652      6.29439     10.52650         0.004880      0.017914     -0.056551
Li	      8.55339      8.30945      8.61587         0.028631     -0.008438      0.024106
Li	      6.39203      6.14881      8.59435        -0.006148     -0.050961      0.013489
Ti	      4.20031      4.15626      4.22948        -0.040475     -0.095656      0.021179
Ti	      6.33926      8.28142      6.38769         0.085249     -0.309824     -0.120537
Mn	      2.20849      0.03188      2.20737         0.005273      0.086394     -0.015381
Mn	      6.23775      2.20902      8.57377         0.002771     -0.004913     -0.008208
V	      8.43358      8.43607     12.72042        -0.021475     -0.024061      0.007139
Cr	      4.20938      6.31482      6.36932         0.058135     -0.021572      0.006268
Fe	      6.22762      6.28090     12.69133         0.100540     -0.042689      0.016385
Fe	      6.35835      8.33887     10.63998        -0.086206      0.044821      0.003123
Cu	      4.15641      2.01747      2.23567        -0.062619      0.107402      0.173484
O	      2.01272      2.09117      1.99827        -0.027347     -0.186344      0.050582
O	      4.20161      4.27277      2.22181         0.133389      0.135770      0.008242
O	      4.26987      2.21947      4.35693        -0.034023      0.172704      0.093078
O	      6.19136      4.10261      4.33740        -0.102964      0.024022     -0.043845
O	      6.38928      1.95903      6.32883        -0.071429      0.034036      0.007364
O	      8.50596      4.08481      6.40793        -0.000495      0.013717      0.031974
O	      2.23384      4.15357      4.45012         0.133054      0.009579      0.170001
O	      4.26269      6.13466      4.36437        -0.011107     -0.103632      0.046247
O	      4.06930      4.29897      6.33518        -0.125536      0.037080     -0.024401
O	      6.24005      6.41800      6.42583        -0.013267      0.370177      0.042809
O	      6.31254      4.10027      8.54929         0.082344     -0.009167     -0.057798
O	      8.55451      6.31199      8.53621        -0.018867     -0.067721     -0.010431
O	      2.13086      6.29669      6.38297        -0.051981     -0.087277     -0.050407
O	      4.29563      8.41174      6.25488         0.072461     -0.009335     -0.101669
O	      4.22637      6.36594      8.36827        -0.193974     -0.209967     -0.057353
O	      6.26461      8.45280      8.47082         0.064901      0.209487     -0.077612
O	      6.29888      6.35849     10.73665         0.025475     -0.035307     -0.143012
O	      8.33823      8.40821     10.76621         0.044141     -0.019909     -0.074275
