# total energy = -238.75329532 eV
 
CRYSTAL
PRIMVEC
-0.016462 6.181814 6.378754 
6.424699 -0.004861 6.366440 
4.273891 4.102992 0.006723 
PRIMCOORD
36 1
Li	      6.41736      2.05080      4.24528        -0.028181     -0.004564      0.019733
Li	     10.53299      6.28275      8.55353        -0.116088      0.018817      0.005731
Li	      8.45795      4.19474      8.56621        -0.024013      0.057748      0.017928
Li	      2.10169      2.07475      4.18388        -0.009256      0.004211      0.012069
Li	      8.49379      6.20136      6.55347        -0.061807      0.046531      0.040540
Li	      6.42959      4.01694     10.49069         0.027755     -0.039775      0.036988
Li	      8.57537      6.19354     10.48510        -0.001292     -0.023237     -0.027039
Li	      4.36666      6.13293      6.33947         0.075123      0.011933     -0.050237
Li	      8.65856      8.15354      8.58438        -0.005309      0.022348      0.036093
Ti	      8.52749      8.16963     12.70477        -0.051306      0.009591     -0.091651
Ti	      4.18265      4.20878      4.19631        -0.116790      0.383312      0.140689
Mn	      6.37381      4.16961      6.41226         0.034000      0.025333      0.095610
Mn	      2.15609      4.06453      6.31679        -0.039181     -0.010803      0.043024
Mn	      6.48900      6.15257      8.56821        -0.014816      0.089125      0.046720
V	      4.29322      0.02896      4.25245         0.085443      0.237705     -0.015653
Cr	     10.64902      4.12096      6.41782        -0.116368     -0.075913      0.037467
Co	      4.23728      2.02279      2.14065         0.849732      0.043598     -0.440146
Cu	      6.43646     10.24699      8.55773        -0.012014      0.035624     -0.170888
O	      2.32740      1.94012      2.00047         0.352382     -0.130056      0.282621
O	      4.17291      4.04774      2.15776        -0.149939     -0.962902     -0.093895
O	      4.32095      2.06025      4.11550        -0.153059     -0.146314     -0.887547
O	      6.49823      4.08778      4.21253        -0.136526     -0.016473      0.074005
O	      6.59923      2.02682      6.48406         0.083440     -0.071054     -0.003309
O	      8.61043      4.02462      6.37208         0.068264     -0.048889      0.029226
O	      2.26902      4.10158      4.32783         0.168200      0.043571     -0.112413
O	      4.29489      6.03554      4.15682        -0.014068     -0.318968      0.010218
O	      4.31885      4.09298      6.13288        -0.134868     -0.000397     -0.129925
O	      6.39822      6.22228      6.35013         0.030071     -0.082811     -0.115291
O	      6.41686      4.20046      8.48178         0.025459     -0.030122      0.026417
O	      8.36930      6.21685      8.54243         0.144258      0.041328     -0.038629
O	      1.99041      6.17716      6.41209         0.058951      0.096443      0.035740
O	      4.13468      8.27057      6.41462        -0.025553     -0.028267      0.913870
O	      4.49277      6.18943      8.56792        -0.288741      0.852470     -0.077327
O	      6.30588      8.22537      8.35686        -0.636992      0.088380      0.192428
O	      6.25349      6.21156     10.79359         0.153621     -0.008351      0.110205
O	      8.55329      8.27684     10.81010        -0.020530     -0.109171      0.046628
