# total energy = -238.19200501 eV
 
CRYSTAL
PRIMVEC
0.028420 6.242890 6.436295 
6.332097 0.009212 6.455333 
4.228281 4.181586 -0.000722 
PRIMCOORD
36 1
Li	      2.30122      8.29279      6.42877        -0.046904     -0.032481      0.045580
Li	      2.36164      6.14718      8.68934        -0.172162      0.107405      0.001250
Li	      4.34349      8.16691      8.48072        -0.057777      0.073272      0.009016
Li	      4.16022      6.20104     10.49012        -0.011356     -0.007936      0.109842
Li	      4.31582      4.18046      4.28134        -0.040231      0.038387     -0.046716
Li	      6.33963      4.19795      6.37409        -0.029636     -0.069448      0.011357
Li	      4.21131      8.38378      4.37759        -0.004545     -0.073528     -0.037664
Li	      4.21780      6.25158      6.62799        -0.019703     -0.029901     -0.129112
Li	      4.17445      4.34891      8.53948         0.059899     -0.154595      0.016413
Ti	      2.12888      4.11115      2.15475        -0.044436     -0.203817      0.176814
Ti	      4.16775      2.19392      6.34127         0.081209      0.481748     -0.218725
Mn	      4.25556     10.37240      6.42093         0.133921     -0.040010      0.123848
Mn	      6.32689      2.14679      8.58518         0.064868      0.070890      0.250520
Mn	      6.26993      6.13155      4.32556        -0.113603      0.060070     -0.126603
V	      2.18906      6.31430      4.35482         0.317009      0.027493     -0.282520
Cr	      6.34843      8.35890     10.67467         0.002879      0.205872     -0.078123
Co	      6.23305      6.26474      8.61380         0.312854     -0.151236      0.202655
Ni	      6.33852      8.37211      6.57024         0.027942      0.020650     -0.079491
O	      2.04948      2.20218      2.17382         0.139678      0.389074     -0.103586
O	      4.09734      4.35048      2.13592        -0.223632     -0.394042     -0.050988
O	      4.26531      2.08532      4.44513         0.072945     -0.026051      0.453540
O	      6.35333      4.08212      4.31487         0.037100     -0.168171     -0.017211
O	      6.21883      1.97830      6.37889        -0.101574     -0.157790     -0.254079
O	      8.49193      4.27764      6.63400         0.266908      0.043758      0.028079
O	      2.12853      4.32780      4.16463        -0.036735      0.084195     -0.044833
O	      4.12015      6.29588      4.28668        -0.103556      0.012905      0.173311
O	      4.20817      4.03749      6.50451         0.007948     -0.534661     -0.099102
O	      6.45677      6.28157      6.44450         0.100842     -0.059721      0.598748
O	      6.47270      4.11959      8.55850         0.129450      0.419262     -0.018910
O	      8.47997      6.21195      8.63419        -0.340136     -0.020197     -0.271968
O	      2.09613      6.22514      6.29097        -0.246926      0.068029      0.158706
O	      4.29441      8.48838      6.43969        -0.047061      0.249924      0.011003
O	      4.29086      6.25144      8.56428         0.213290     -0.062035      0.046687
O	      6.34799      8.31405      8.65682        -0.088106     -0.245305      0.160290
O	      6.46624      6.29468     10.74639        -0.234159      0.097519     -0.774152
O	      8.38348      8.16536     10.73043        -0.006506     -0.019530      0.056124
