# total energy = -240.55610945 eV
 
CRYSTAL
PRIMVEC
0.020729 6.414524 6.407035 
6.176213 -0.000204 6.428933 
4.114869 4.288549 0.002498 
PRIMCOORD
36 1
Li	      4.18451     10.53969      6.36409        -0.000992     -0.029857      0.010177
Li	      2.22867      8.42711      6.54008        -0.007191     -0.026809      0.018368
Li	      2.06798      6.50988      8.36244        -0.030269      0.045751     -0.025295
Li	      4.10726      8.50985      8.41033        -0.008409     -0.061106      0.038443
Li	      6.19571      8.48157     10.68888        -0.060673     -0.052886      0.001429
Li	      4.10346      6.39232      2.16351         0.045616      0.018676      0.077852
Li	      4.09242      8.60495      4.46206         0.017644     -0.069329      0.010156
Li	      4.04673      6.54633      6.38714         0.077973      0.089940     -0.126406
Li	      6.21304      6.49155      8.60262         0.006901      0.059900      0.024886
Ti	      6.21674      4.14926      6.40687         0.053461     -0.226889     -0.099424
Ti	      4.09982      4.51453      8.63008        -0.179984      0.281442      0.095142
Mn	      4.18589      4.27319      4.22126         0.022423      0.025653     -0.095214
Mn	      8.24165      6.39805      6.44957        -0.057832     -0.082190     -0.177491
Mn	      8.20350      6.47102     10.74932         0.157261      0.068886     -0.000643
V	      2.10249      4.19546      2.16063         0.160216     -0.248132     -0.022520
Cr	      6.09994      8.60152      6.43641         0.104316     -0.021533     -0.061031
Co	      4.27689      6.43566     10.66940         0.069912     -0.011027     -0.077766
Co	      6.09920      6.43734      4.24925         0.179495      0.055270      0.206481
O	      2.00622      2.25797      2.20307        -0.034560      0.189292      0.497125
O	      3.90829      4.25903      2.13982        -0.158141      0.055801     -0.045610
O	      4.11765      2.13730      4.46394        -0.128077      0.143244      0.031372
O	      6.27985      4.30070      4.47342         0.143525      0.222227      0.126209
O	      6.09546      2.29113      6.43085        -0.045481      0.238265     -0.000057
O	      8.15661      4.20405      6.53465        -0.173111     -0.031562     -0.060666
O	      1.98789      4.30498      4.21609         0.001828     -0.138535      0.050263
O	      4.01125      6.37262      4.26588        -0.105674     -0.134546     -0.067690
O	      4.19292      4.33904      6.52681         0.032370     -0.025051      0.137627
O	      6.27809      6.44627      6.37821        -0.031540      0.062948     -0.412245
O	      6.19271      4.31624      8.38865        -0.030137      0.057629     -0.033621
O	      8.22822      6.33221      8.45069        -0.021901     -0.016463      0.084594
O	      2.05152      6.30423      6.36742        -0.069090     -0.088167     -0.052867
O	      4.20806      8.52309      6.43886        -0.064439     -0.026940      0.046923
O	      4.13253      6.35648      8.60916         0.065767     -0.305869      0.128183
O	      6.33503      8.59497      8.42739         0.178297      0.023701     -0.042724
O	      6.25993      6.46477     10.70276        -0.074433      0.028755      0.003651
O	      8.28652      8.54410     10.48771        -0.035070     -0.070488     -0.187611
