# total energy = -236.13512621 eV
 
CRYSTAL
PRIMVEC
-0.003262 6.342797 6.354195 
6.277937 -0.026546 6.377466 
4.157105 4.215813 0.010507 
PRIMCOORD
36 1
Li	      4.23362     10.48670      6.39205        -0.007076      0.068167      0.013939
Li	      2.12346      8.39579      6.36926        -0.031317     -0.032765     -0.004996
Li	      4.18742      8.42789      8.39214         0.026500     -0.015747     -0.045880
Li	      4.10829      4.34858      4.31628        -0.048015      0.118461     -0.027766
Li	      4.16481      2.19510      6.41596         0.027267     -0.039813      0.055098
Li	      2.17653      6.28892      4.29851         0.035285     -0.020289     -0.024954
Li	      4.14252      6.30574      6.33646        -0.009703      0.017524     -0.064179
Li	      4.17117      4.15663      8.39634        -0.021618     -0.085050     -0.025703
Li	      6.28073      6.36036      8.41268         0.000284      0.016969     -0.024316
Ti	      4.19130      6.27511     10.48875         0.023156     -0.067710     -0.440187
Ti	      6.25058      8.33384     10.65794        -0.042991     -0.037072      0.508840
Mn	      2.02137      0.04005      2.02492        -0.045068      0.054253     -0.052535
Mn	      2.10978      2.14823      4.26031         0.032634      0.115850      0.037475
Mn	      2.14646      4.23787      6.38680         0.011640      0.027646     -0.085178
V	      8.37931      4.29517      8.35854        -0.059816      0.000487      0.038992
Cr	      4.16580      8.43501      4.26767         0.050294     -0.119253     -0.045754
Cu	      6.21673      2.12244      8.44188        -0.128363     -0.121108     -0.128164
Ni	      6.13458      4.23039      6.41777         0.103846     -0.035427      0.095524
O	      2.18346      2.20836      2.28232         0.089247     -0.132626      0.135826
O	      4.02784      4.36227      2.13695         0.305476      0.090249      0.000455
O	      4.23865      1.90691      4.30971         0.053117     -0.131593      0.026838
O	      6.34056      4.08497      4.33138         0.129625     -0.019902     -0.062857
O	      6.27411      2.13473      6.23774        -0.028956     -0.033982     -0.705587
O	      8.26763      4.13351      6.52001         0.045462     -0.154025     -0.218504
O	      1.99252      4.26363      4.05430        -0.010413     -0.007017      0.202435
O	      4.26981      6.46409      4.21644         0.075897      0.053373      0.262258
O	      4.09810      4.21455      6.35812        -0.178659      0.039569     -0.004445
O	      6.26351      6.39291      6.23176        -0.065560      0.094490     -0.291036
O	      6.31432      4.12711      8.51836        -0.248148      0.112181      0.147484
O	      8.26309      6.15085      8.48537         0.042727      0.188148      0.140891
O	      2.10943      6.18788      6.34058         0.048108     -0.025825      0.027644
O	      4.31987      8.44766      6.25780         0.009267     -0.047969     -0.098643
O	      4.19136      6.30765      8.68223         0.035609     -0.038995      0.476257
O	      6.24275      8.43883      8.72009        -0.022379     -0.023684      0.234278
O	      6.15383      6.33850     10.67235        -0.143702      0.083523     -0.024141
O	      8.33952      8.50158     10.67394        -0.053658      0.108962     -0.029408
