# total energy = -237.20955904 eV
 
CRYSTAL
PRIMVEC
0.061833 6.218501 6.647841 
6.227177 0.101302 6.609576 
4.220549 4.187694 -0.001320 
PRIMCOORD
36 1
Li	     10.43129      4.29812      6.62968        -0.012435     -0.008017     -0.051123
Li	      4.17989      2.14041      2.27201        -0.002202      0.012427      0.045188
Li	      4.14467      0.21506      4.38108         0.027305     -0.011634     -0.050881
Li	      2.17973      4.19351      2.20584         0.030304     -0.015962     -0.020487
Li	      6.45647      6.28981      4.59830         0.014230      0.006595      0.112280
Li	      8.30379      6.26906      6.53693        -0.001138     -0.007018     -0.026959
Li	      6.31446      4.31828      6.59050        -0.027438     -0.057695     -0.015713
Li	      6.29791      8.25679      6.60295         0.016906      0.028422     -0.017370
Li	      6.30720      6.30834      8.72494         0.013742     -0.011963     -0.025730
Ti	      6.21629      4.24520      2.27457        -0.166306      0.038791      0.117230
Ti	      4.23834      4.15970      8.66348         0.044239     -0.009735     -0.407581
Mn	      0.09374      4.13854      4.42483         0.015752     -0.014810      0.004592
Mn	      2.14001      6.17840      4.43675        -0.003487     -0.055019      0.034290
Mn	      4.30835      6.31705      6.68205         0.036701     -0.106221      0.013679
V	      8.30122      2.33869      6.62882         0.026342      0.077780      0.002203
Cr	      6.21265      2.15137      4.42955        -0.046594      0.044498      0.008675
Cu	      6.22451      2.15764      8.75411        -0.005037     -0.017978     -0.043585
Cu	      4.15624      4.14549      4.43323         0.053474     -0.013808      0.015988
O	      2.03516      2.04866      2.02832         0.117962      0.005266     -0.086393
O	      4.34537      4.25470      2.03067         0.103780     -0.121034     -0.092417
O	      4.24429      2.18982      4.42457         0.031553     -0.145405     -0.041451
O	      6.22919      4.22447      4.22016         0.154613     -0.007157     -0.164451
O	      6.38551      2.17406      6.41315        -0.032175      0.029170     -0.071343
O	      8.37220      4.10160      6.59877         0.009364      0.043024     -0.038424
O	      2.16780      4.25242      4.41459        -0.176232     -0.043328      0.026421
O	      4.08358      6.15347      4.50840         0.000412      0.159083      0.103143
O	      4.18653      4.27390      6.83275         0.016076      0.008697      0.571027
O	      6.18217      6.29527      6.63226         0.028546     -0.006549      0.054776
O	      6.14464      4.15584      8.90168        -0.072332      0.138934      0.025732
O	      8.40646      6.42914      8.80743        -0.109587      0.064932      0.062308
O	      2.30885      6.37300      6.81293        -0.057420     -0.040035     -0.003133
O	      4.18644      8.27248      6.62683        -0.000613      0.015285     -0.022601
O	      4.11565      6.14006      8.94624        -0.035794     -0.009153     -0.040213
O	      6.41440      8.46272      8.96659         0.031813      0.046183      0.055275
O	      6.42607      6.36688     11.05612        -0.002671     -0.014890      0.028965
O	      8.35578      8.28335     11.17450        -0.021652     -0.001674     -0.061919
