# total energy = -242.43173558 eV
 
CRYSTAL
PRIMVEC
-0.006456 6.270839 6.315207 
6.459810 -0.032455 6.340652 
4.273325 4.164469 0.011553 
PRIMCOORD
36 1
Li	      8.50115      2.07416      6.29795        -0.040385     -0.016193      0.055857
Li	      2.07822      4.14931      2.28573        -0.003290     -0.068322      0.016996
Li	      2.08864      2.16872      4.19552         0.009362     -0.014606     -0.022245
Li	      4.16235      4.23097      4.23931        -0.002414     -0.003455     -0.062680
Li	      4.34694      2.12689      6.24884        -0.024290      0.029134      0.007816
Li	      6.35767      4.12028      6.38854        -0.025998      0.051915      0.011068
Li	      0.08977      4.09817      4.19160         0.021565      0.054708     -0.064659
Li	      2.25413      6.21560      4.19481         0.020343      0.055484      0.044665
Li	      4.32578      4.22744      8.39526         0.059427     -0.066613      0.006393
Ti	      2.13204      0.08412      2.11328        -0.033935      0.399259     -0.039715
Ti	      8.55389      4.07031      4.37359        -0.005076     -0.173109      0.219215
Mn	      4.23839     10.38379      6.34976        -0.057149     -0.033560      0.008332
Mn	      6.39219      2.19480      8.48032        -0.022538      0.038743     -0.017388
Mn	      4.31490      6.24068      6.20920         0.050569     -0.049959      0.034101
V	      6.66218      6.17311      8.41676        -0.119375      0.153676      0.032763
Cr	      6.42634      2.05881      4.27626        -0.090730     -0.044650     -0.161772
Fe	      2.24361      4.12047      6.12233        -0.035621     -0.012866      0.305095
Co	      4.27476      2.06655      2.14321         0.231005     -0.185551      0.017136
O	      2.17884      1.95581      2.11418        -0.216911     -0.315093     -0.003280
O	      4.47905      4.18750      2.18111         0.024641     -0.298771      0.098256
O	      4.39858      1.92602      4.18742        -0.102451      0.078349     -0.445586
O	      6.57840      4.08483      4.11887         0.037136      0.008424     -0.004792
O	      6.41194      2.04413      6.28772        -0.021569      0.012176     -0.001169
O	      8.59882      4.10901      6.20331        -0.052871      0.024484     -0.299320
O	      2.14409      4.15879      4.26792        -0.031072      0.040667     -0.197988
O	      4.25720      6.28762      4.25422         0.044943      0.006240      0.061000
O	      4.21343      4.28397      6.27652         0.104711      0.013532      0.034572
O	      6.46169      6.30423      6.49230         0.001506     -0.083752     -0.132067
O	      6.42682      4.29649      8.42863         0.003464     -0.122293      0.017737
O	      8.41802      6.25760      8.48842         0.384258     -0.055169     -0.005905
O	      2.13525      6.15299      6.48871        -0.001910      0.087498      0.023934
O	      4.38908      8.24334      6.36648        -0.072661      0.027473      0.446215
O	      4.25217      6.22433      8.42162        -0.089276      0.316109      0.049208
O	      6.41509      8.30035      8.52342         0.130044     -0.016773     -0.089349
O	      6.30268      6.28029     10.42703        -0.069164      0.035791      0.042111
O	      8.44590      8.42944     10.56332        -0.004288      0.127073      0.015443
