# total energy = -240.74548895 eV
 
CRYSTAL
PRIMVEC
0.005855 6.287322 6.352204 
6.395929 0.008181 6.349764 
4.245876 4.172092 0.024012 
PRIMCOORD
36 1
Li	      0.08602      6.24934      6.36904         0.025240     -0.001244     -0.017866
Li	      2.11963      6.29804      8.42729        -0.050061     -0.028854      0.037603
Li	      4.17887      2.13459      2.02643        -0.014401      0.007440     -0.052786
Li	      6.34537      2.13186      4.29809        -0.052132     -0.029811      0.016351
Li	      2.18311      4.15066      2.16960         0.019528     -0.003371      0.031412
Li	      6.40216      6.24600      4.26574        -0.023403     -0.030154      0.027892
Li	      6.36365      4.16544      6.28782        -0.056611      0.002837     -0.013617
Li	      2.14701      6.26893      4.38266         0.025036      0.053372     -0.023833
Li	      4.11784      6.33777      6.37900         0.018760      0.046143      0.022706
Ti	      0.15728      2.04043      2.06945         0.291796     -0.101505     -0.011661
Ti	      6.36244      6.35919      8.51176        -0.035488      0.204533      0.075536
Mn	      8.37935      4.17885      4.28739         0.028865     -0.035427     -0.105479
Mn	      4.30176      4.18098      4.26828        -0.041786      0.005743     -0.001660
Mn	      8.48332      6.16869      6.40555         0.029435     -0.009405      0.013245
V	      0.08685      4.19311      4.27141        -0.013843     -0.012290      0.044102
Cr	      2.15335      4.28217      6.34432        -0.030163     -0.003393      0.024395
Fe	      4.28135      4.21051      8.45222        -0.029333      0.038079      0.008704
Cu	      2.12634      8.30609      6.31317        -0.052470     -0.038583      0.064966
O	      2.00098      2.12250      2.00332        -0.256071     -0.008487      0.115327
O	      4.23005      4.30315      2.26656        -0.000672      0.132965      0.004784
O	      4.22912      1.95946      4.41391        -0.012619     -0.025200     -0.033790
O	      6.23592      4.16633      4.25761        -0.017962     -0.021779      0.010834
O	      6.16614      2.06116      6.50942        -0.065542     -0.020321      0.023762
O	      8.47012      4.03083      6.20221        -0.020017      0.143366      0.039394
O	      2.24187      4.17817      4.35128         0.063540     -0.003099     -0.040299
O	      4.24094      6.39779      4.04922         0.005200     -0.065341     -0.080422
O	      4.20489      4.25968      6.32488         0.013162     -0.049424     -0.124860
O	      6.49843      6.34536      6.51623        -0.051955     -0.017858      0.059671
O	      6.41697      4.21106      8.52911         0.089714     -0.002654     -0.086219
O	      8.45320      6.24280      8.36027         0.000687     -0.052007      0.037309
O	      2.13695      6.28606      6.38385         0.036255     -0.101802      0.016135
O	      4.42702      8.36165      6.23893         0.061534      0.029997      0.058501
O	      4.39292      6.33883      8.61751         0.122851      0.038301      0.006635
O	      6.38173      8.27627      8.42517        -0.018917     -0.181386     -0.000529
O	      6.49703      6.21450     10.41632         0.007759      0.090163     -0.148992
O	      8.60131      8.47576     10.58727         0.004086      0.050456      0.002747
