# total energy = -239.36623980 eV
 
CRYSTAL
PRIMVEC
0.026877 6.404895 6.273639 
6.250966 0.031655 6.268591 
4.192411 4.291690 -0.004035 
PRIMCOORD
36 1
Li	      2.15978      6.39106      8.37298         0.019120     -0.008455     -0.014855
Li	      4.24154      8.47197      8.45682        -0.006974     -0.076310     -0.032084
Li	      4.18916      6.44102     10.26322        -0.034917     -0.005577     -0.083488
Li	      2.15089      4.29444      2.11927         0.000146      0.025773     -0.023437
Li	      2.17360      2.16401      4.04076         0.065103     -0.002094     -0.070547
Li	      8.36913      6.46680     10.37928         0.023962      0.021723     -0.018653
Li	      6.27898      8.63352      6.40255         0.032413      0.063136      0.139538
Li	      8.31034      8.60729      8.41672         0.036369      0.019955     -0.026286
Li	      6.23282      6.53942      8.40298        -0.034355      0.006078     -0.035352
Ti	      6.27762      4.40050      6.21877        -0.123771      0.428727     -0.070923
Ti	      0.15236      4.29436      4.11431         0.350335     -0.061404     -0.053099
Mn	      2.09013      2.14005      0.01416         0.090910     -0.054423      0.072181
Mn	      4.17942      6.38200      2.15176        -0.035832      0.019137      0.017934
Mn	      8.29707      6.49708      6.30001        -0.125755      0.086874     -0.046170
V	      4.13594      6.42253      6.38994        -0.014645     -0.055839      0.088858
Cr	      4.25091     10.66204      6.30234         0.008859     -0.055541      0.045838
Fe	      6.27305      8.54022     10.26793        -0.047323      0.026822      0.160558
Ni	      4.11464      4.26880      4.11737        -0.028152      0.044542      0.037380
O	      1.94621      2.13955      1.95491        -0.047606      0.018186     -0.111184
O	      4.18519      4.39474      2.03216         0.005764      0.067259     -0.117459
O	      4.22653      2.22834      4.16689         0.063956     -0.106584     -0.017079
O	      6.24481      4.22061      4.33703         0.087989     -0.049297      0.087725
O	      6.24952      2.08117      6.15459         0.110562     -0.059918     -0.062649
O	      8.29161      4.27227      6.28709         0.042877     -0.078969      0.003999
O	      2.00760      4.25904      4.18153        -0.398530      0.048008     -0.038585
O	      4.22579      6.54114      4.29681         0.018939      0.157840     -0.099597
O	      4.29887      4.34428      6.22436         0.097188      0.022752      0.077646
O	      6.20563      6.26404      6.29401         0.042769     -0.343400      0.020047
O	      6.25724      4.20746      8.38794         0.047860     -0.065653      0.156537
O	      8.52398      6.45227      8.35795         0.062963     -0.037368      0.109180
O	      2.09622      6.46211      6.27768        -0.180027      0.006094     -0.037395
O	      4.23657      8.62321      6.18377        -0.073910      0.084043     -0.073880
O	      4.19236      6.44191      8.26948         0.022630     -0.010460      0.029922
O	      6.33518      8.53195      8.43517        -0.043344      0.012868     -0.087232
O	      6.28292      6.32584     10.53772         0.001509     -0.049968      0.002415
O	      8.42896      8.59356     10.58532        -0.037081     -0.038557      0.070197
