# total energy = -235.92333722 eV
 
CRYSTAL
PRIMVEC
-0.055338 6.418372 6.504535 
6.223309 0.023796 6.424823 
4.165691 4.242646 -0.000742 
PRIMCOORD
36 1
Li	      4.12671      4.19967      0.22362         0.043415     -0.036145     -0.065420
Li	      2.11218      2.16033      0.15988         0.019219     -0.028779      0.049416
Li	      6.02957      4.24450      2.14660         0.034656      0.011896     -0.039452
Li	      4.12221      2.34583      2.01036        -0.019994     -0.032985     -0.063360
Li	      6.14483      2.23393      4.39750        -0.013899      0.003115     -0.006242
Li	      4.19173      6.09956      2.00381         0.072980     -0.025057     -0.024999
Li	      2.31032      4.23499      2.03988         0.015610     -0.052108     -0.028882
Li	      4.18066      4.18618      3.96615         0.010308     -0.033930     -0.029593
Li	      4.09320      6.55193      6.49127        -0.073218      0.053703      0.005417
Ti	      2.06278      2.10708      4.03610         0.096082     -0.115507     -0.693540
Ti	      6.13438      6.46883      8.62082        -0.285267      0.063752      0.045531
Mn	      8.28844      4.26783      4.35753         0.039306     -0.008930     -0.021468
Mn	      4.20088      2.13136      6.47566         0.056812     -0.033648      0.002882
Mn	      8.28163      8.52950      8.63312        -0.000167      0.029020      0.037781
V	      2.11853      6.34843      4.41422         0.065727     -0.055118      0.195618
Cr	      4.15045      8.50138      4.39116        -0.036648      0.003390      0.028160
Ni	      6.20677      4.24704      6.45304        -0.031903      0.024560      0.060103
Ni	      6.17821      8.52763      6.47827        -0.017199      0.119886      0.052746
O	      2.04631      2.13022      2.23828        -0.031579      0.030336      0.717717
O	      4.18757      4.22571      2.09737        -0.012812     -0.020316      0.012976
O	      3.94534      2.19196      4.31158        -0.164319      0.031054      0.040994
O	      6.15146      4.46207      4.36069        -0.025831      0.169632     -0.067278
O	      6.09406      2.22358      6.39878        -0.069240     -0.099860      0.017668
O	      8.24905      4.40868      6.44680         0.113386      0.073388      0.013553
O	      1.99654      4.24732      4.38441        -0.038522     -0.075743     -0.074660
O	      4.14460      6.49769      4.34382         0.091195      0.038359     -0.043025
O	      4.12071      4.13242      6.68245        -0.026039     -0.032447      0.074369
O	      6.32826      6.39186      6.64762        -0.005287     -0.004013      0.126762
O	      6.06421      4.41781      8.68238        -0.002681      0.083322      0.048692
O	      8.18700      6.33509      8.86185        -0.024046      0.018402     -0.096060
O	      2.07827      6.35999      6.20555         0.014987      0.030726     -0.080663
O	      4.16262      8.52689      6.34972        -0.107342      0.004065     -0.068180
O	      4.26773      6.46993      8.67341         0.289291     -0.013114     -0.018807
O	      6.33664      8.43524      8.61277         0.004801     -0.131215      0.106204
O	      6.29287      6.33675     10.65507        -0.050155     -0.036337     -0.125651
O	      8.32955      8.42755     10.67363         0.068373      0.046648     -0.089309
