# total energy = -245.64496543 eV
 
CRYSTAL
PRIMVEC
-0.027568 6.362000 6.224752 
6.426900 -0.004415 6.200491 
4.279195 4.219778 0.003172 
PRIMCOORD
36 1
Li	      6.36855      6.35528     12.38933        -0.033392     -0.002312      0.010440
Li	      8.40842      2.10358      6.22597         0.026651      0.082150      0.009748
Li	      6.42855      8.46257     10.32961        -0.018115      0.019129      0.017123
Li	      6.40916      2.28527      8.32364         0.032759      0.056488      0.008613
Li	      6.50121      6.25110      4.20675        -0.051826      0.008664     -0.006426
Li	      6.42393      4.26214      6.24882        -0.001282     -0.009121     -0.037156
Li	      6.39841      4.27998     10.35718        -0.009701     -0.028302      0.000825
Li	      4.26125      6.30741      6.18825        -0.000832     -0.007198     -0.021363
Li	      4.44994      4.26145      8.21574        -0.031268     -0.029516     -0.007529
Ti	      4.10237      8.42944      8.11952        -0.108680      0.174548     -0.354351
Ti	      8.63861      6.53050     10.39685         0.311352      0.172918     -0.025850
Mn	      2.06508      4.20407      2.11560         0.046304      0.130256     -0.164586
Mn	      4.44212      4.28417      4.14547        -0.098096     -0.057551      0.178971
Mn	      2.12193      4.23391      6.17201        -0.010424     -0.139148     -0.062274
Mn	      6.39188      6.31645      8.27666         0.018006     -0.086535     -0.056703
V	      4.47628      2.12936      6.21057         0.206371     -0.076381      0.023716
Cr	      8.51445     10.52463     10.39293         0.021541      0.028803      0.119012
Co	      6.38724     10.54140      8.26682        -0.109846      0.092849     -0.221800
O	      2.22293      2.13090      2.08654         0.205436     -0.325452     -0.012020
O	      4.38010      4.01175      2.06777        -0.519192     -0.292831     -0.025276
O	      4.28536      1.98891      4.21258         0.020978     -0.058213     -0.136719
O	      6.54775      4.18019      4.04864         0.045351     -0.008759      0.507958
O	      6.24586      2.10734      6.27808        -0.186689     -0.012452     -0.011229
O	      8.54629      4.35060      6.16591         0.022074     -0.089320     -0.072081
O	      2.12184      4.37105      4.22885        -0.030279      0.020940      0.092706
O	      4.07266      6.40540      4.16159        -0.285869      0.049051      0.015891
O	      4.30427      4.09835      6.21722        -0.019949      0.064064      0.068684
O	      6.57711      6.43334      6.27355         0.004982     -0.068907      0.034282
O	      6.42090      4.40431      8.27701        -0.054412      0.073160      0.015025
O	      8.60110      6.36200      8.33585         0.047802      0.152781      0.040118
O	      2.05875      6.25970      6.15131         0.031198      0.038437     -0.441802
O	      4.18482      8.40549      6.30514        -0.041563     -0.012680      0.435563
O	      4.14344      6.40154      8.33372         0.571337      0.228412      0.070803
O	      6.21455      8.31887      8.17544         0.010391      0.096394      0.015895
O	      6.37770      6.36985     10.25446         0.009967     -0.009142     -0.031116
O	      8.49853      8.41579     10.40183        -0.021084     -0.175223      0.022906
