# total energy = -46.44489940 eV
 
CRYSTAL
PRIMVEC
-0.000628 2.033864 2.036104 
2.020854 2.074554 -4.113535 
-4.067564 2.070796 -2.071818 
PRIMCOORD
8 1
Li	     -1.97503      3.98593     -1.98097         0.062730      0.228859     -0.158096
Li	     -0.04231      2.10488     -2.10470         0.105227     -0.039250     -0.027174
Mn	      0.00008      0.00149      0.00059         0.239150     -1.297014      1.001108
Ni	     -2.00347      2.02327     -0.01713        -0.494090     -0.107314      0.324213
O	     -2.02135      4.18883     -4.19306        -0.356435      0.545407     -0.643886
O	     -2.12715      2.02422     -2.02145        -0.153160      0.248276     -0.495473
O	      0.11085      4.06585     -2.06463         0.143591      0.075896      0.055974
O	      0.00495      1.90087      0.10683         0.452986      0.345140     -0.056664
