# total energy = -245.65747252 eV
 
CRYSTAL
PRIMVEC
0.004975 6.427507 6.290666 
6.369928 -0.008099 6.304299 
4.262492 4.310196 -0.021239 
PRIMCOORD
36 1
Li	      4.23644      4.35631      0.11777         0.028422     -0.024240      0.014117
Li	      6.21823      4.42599      2.08181         0.040536      0.037024     -0.029274
Li	      4.29953      6.22900      2.22563        -0.028953     -0.068780      0.052257
Li	      2.27656      4.27897      2.14717        -0.026936      0.042759      0.011689
Li	      2.00468      2.21126      4.09386         0.032564      0.008803      0.012447
Li	      4.14895      4.39037      4.08357        -0.066371     -0.017842      0.002174
Li	      6.40148      4.27618      6.30452         0.025924     -0.010761      0.016550
Li	      2.25448      6.34458      4.16436         0.027701      0.008898      0.022721
Li	      4.28886      4.20511      8.35482         0.006390     -0.093046      0.028861
Ti	      6.43318      2.25530      4.19386         0.220929      0.214955      0.082804
Ti	      6.47497      6.27977      8.35960         0.288708     -0.449936     -0.064900
Mn	      4.24738      6.44162     10.43720        -0.017899     -0.089104     -0.022079
Mn	      4.29174      8.49771      4.11854        -0.035672     -0.086395      0.030303
Mn	      4.28368      2.12540      6.30950        -0.016113      0.037618      0.052219
Mn	      2.13058      4.35498      6.30646        -0.114125      0.042011      0.023377
V	      2.10324      2.15782      0.06424         0.188035     -0.193994     -0.074451
Cr	      4.22759      2.26821      2.12302        -0.023512      0.123660     -0.290249
Fe	      4.23373      6.33815      6.19883        -0.031188      0.178713      0.098106
O	      2.20264      2.22220      2.00727         0.073782     -0.019996      0.051526
O	      4.24557      4.22328      2.07866         0.005988     -0.021959      0.010894
O	      4.42366      2.22692      4.14207         0.084328     -0.052363      0.000121
O	      6.55022      4.15271      4.11328         0.020500     -0.239541     -0.010112
O	      6.41504      2.13925      6.12046        -0.124475      0.034427     -0.150369
O	      8.52203      4.20104      6.08031        -0.021332     -0.011540     -0.045843
O	      2.09961      4.31437      4.42468         0.011696     -0.039432      0.004769
O	      4.28856      6.39780      4.27034         0.057107     -0.011208     -0.098701
O	      4.10315      4.36427      6.36320        -0.035965     -0.088539     -0.018516
O	      6.28217      6.41056      6.40882         0.077647     -0.028621      0.191798
O	      6.33000      4.42676      8.37958        -0.016581      0.475372     -0.102024
O	      8.34798      6.41691      8.39328        -0.388067     -0.004669      0.039558
O	      2.25206      6.56757      6.32692        -0.113845      0.147270      0.014488
O	      4.30569      8.52949      6.36044         0.027001     -0.027375      0.141807
O	      4.35362      6.56873      8.44114         0.035670      0.070234      0.055357
O	      6.31614      8.51907      8.37313        -0.002850     -0.059265      0.063652
O	      6.23294      6.53635     10.35769         0.020498      0.088304     -0.120442
O	      8.39575      8.49303     10.51742        -0.209541      0.128555      0.005365
