# total energy = -242.71588097 eV
 
CRYSTAL
PRIMVEC
0.042033 6.435483 6.426482 
6.286656 0.069489 6.399782 
4.203171 4.284627 0.034257 
PRIMCOORD
36 1
Li	      6.25520      0.14401      6.33772        -0.024701      0.000336      0.000588
Li	      8.37720      4.24190      4.40294        -0.052817      0.010867      0.013545
Li	      6.40972      8.64552     10.64957        -0.028817      0.057268      0.035504
Li	      8.31363      4.46036      8.48678        -0.012035     -0.061214      0.000243
Li	      6.35785      4.27607      6.49886        -0.038772     -0.033418      0.003247
Li	      8.39368      6.55700     10.62193         0.009127      0.029903      0.049118
Li	      6.33139      8.61879      6.53025         0.024319      0.000519     -0.015526
Li	      8.34973      8.50218      8.67696         0.077645      0.053658      0.015060
Li	      6.47414      6.55891      8.55871        -0.069708      0.034590      0.041346
Ti	      4.13362      4.33560      4.29146        -0.047834     -0.042940      0.032501
Ti	      4.30987      6.41213      6.51958         0.134664     -0.046430      0.090538
Mn	      8.31584      2.26136      6.39348         0.009306      0.029115     -0.052321
Mn	      4.31683      8.59375      8.55610        -0.003361      0.011047      0.046456
Mn	      2.09928      2.17099      4.24643         0.033581      0.006609     -0.009469
Mn	      8.45252      6.37505      6.49767        -0.174383      0.018055      0.033312
V	      6.28482      4.58281     10.61473         0.108911     -0.317602     -0.132746
Cr	      6.33947     10.68593      8.57875         0.047289      0.021451      0.071375
Ni	     10.43954      6.51390      8.55547        -0.009837      0.051129      0.077211
O	      2.09122      2.05452      2.06141         0.007354     -0.064013     -0.061382
O	      4.26871      4.32354      2.30003         0.004514     -0.026791      0.034888
O	      4.22259      2.32734      4.41849        -0.021161      0.052557      0.060845
O	      6.14700      4.33628      4.17004        -0.001485      0.011044      0.001207
O	      6.21644      2.18366      6.45672        -0.085324     -0.026468     -0.141757
O	      8.37375      4.20909      6.43100         0.002502     -0.005704     -0.001713
O	      2.17781      4.32679      4.23224         0.104508      0.012167      0.010464
O	      4.14583      6.38745      4.37949         0.053891     -0.109119      0.087422
O	      4.19777      4.47173      6.25821         0.028895      0.138318     -0.068576
O	      6.24991      6.42721      6.45873        -0.004108     -0.051730      0.035119
O	      6.29934      4.22891      8.79562        -0.050620      0.137912     -0.024299
O	      8.43091      6.47967      8.41054        -0.158863     -0.020434     -0.051036
O	      2.23240      6.57876      6.52665         0.077135     -0.019589     -0.026332
O	      4.28643      8.41257      6.29010         0.067149     -0.070124     -0.023317
O	      4.17128      6.44557      8.41535         0.021721     -0.035973     -0.170130
O	      6.35081      8.71128      8.58660         0.036764      0.010209     -0.016755
O	      6.37359      6.32551     10.71341        -0.048696      0.304501      0.030473
O	      8.54808      8.68207     10.81811        -0.016751     -0.059707      0.024896
