# total energy = -227.38146906 eV
 
CRYSTAL
PRIMVEC
-0.040368 6.345295 6.202202 
6.185174 -0.046054 6.208299 
4.120139 4.230957 -0.027268 
PRIMCOORD
36 1
Li	      4.23392      6.15466     10.33267        -0.067645      0.029468     -0.020780
Li	      6.24025      8.25325     10.33898        -0.051157      0.008117      0.038054
Li	      2.07741      2.11883      4.15721         0.019258      0.019028      0.021720
Li	      8.19333      6.25694      6.23645        -0.035278     -0.020886     -0.051237
Li	      6.03594      4.41948     10.24166         0.031226     -0.058135     -0.023332
Li	      8.05028      6.40489     10.25473         0.044157     -0.038050      0.010094
Li	      2.03800      4.24928      6.20974         0.032416      0.023724     -0.013961
Li	      8.15003      8.37725      8.46900        -0.064394     -0.005407     -0.083019
Li	      6.28763      6.25050      8.43376         0.006388     -0.016385     -0.084081
Ti	      4.21970      8.34216      8.36053         0.328316     -0.160091      0.220910
Ti	      4.20453      6.39098      6.06400         0.413480     -0.047981     -0.075592
V	      4.08028      4.18625      4.19249        -0.002909     -0.016877      0.045244
Cr	      8.16789      8.41147     12.31010         0.004734     -0.005664     -0.006882
Cr	     10.25279      6.32136      8.25916        -0.013186      0.022609      0.027361
Co	      8.22588      4.18411      8.25112         0.024059      0.009215      0.071684
Cu	      6.19036      4.23313      6.18784        -0.053551      0.078803     -0.104109
Ni	      6.15671      6.29670     12.26924         0.015403     -0.059965      0.066707
Ni	      2.04412      6.32755      8.27823         0.003955      0.013962      0.078226
O	      2.06290      2.18215      2.00991        -0.035307      0.087432     -0.045257
O	      4.04650      4.20149      2.06070        -0.090724      0.014042      0.031362
O	      4.07847      2.19474      4.03517         0.045308     -0.020472     -0.217250
O	      5.95602      4.25692      4.06723         0.044988      0.037465      0.066971
O	      6.21742      1.96748      6.31810         0.013777     -0.038974      0.001147
O	      8.16949      4.09952      6.30033         0.054260     -0.055603      0.057648
O	      2.24142      4.21564      3.98490        -0.094365     -0.008501     -0.069259
O	      4.10217      6.25801      4.13933         0.026820      0.029216      0.121008
O	      4.13138      4.35298      6.13106        -0.144726      0.098662      0.054620
O	      6.02344      6.44144      6.16642        -0.333745      0.113944     -0.016160
O	      6.29210      4.06176      8.23167         0.061869     -0.020345      0.028074
O	      8.30572      6.12394      8.22869        -0.001548     -0.081657     -0.019648
O	      2.09469      6.41652      6.24845         0.070276      0.042027     -0.080692
O	      4.03396      8.40603      6.26408        -0.040815     -0.105309      0.064009
O	      4.06376      6.46544      8.17465         0.135171      0.279516      0.012971
O	      6.03478      8.52771      8.23219        -0.341403     -0.095824      0.036678
O	      6.12937      6.30503     10.34476        -0.008254     -0.039436     -0.186614
O	      8.19059      8.43924     10.38607         0.003141     -0.011664      0.043386
