# total energy = -227.84754670 eV
 
CRYSTAL
PRIMVEC
-0.042328 6.228888 6.187021 
6.408182 0.002770 6.142090 
4.281848 4.131044 -0.007253 
PRIMCOORD
36 1
Li	      2.14243      2.09141      0.06343        -0.035592     -0.015283      0.004942
Li	      4.11635      2.06444      2.10473         0.050503      0.034775      0.025720
Li	      4.26226      6.20555      2.09992         0.008393     -0.020337     -0.032439
Li	      6.38492      6.22972      4.12554         0.005002      0.034925      0.009976
Li	      4.16250      4.20465      4.14890        -0.008603      0.000076     -0.062119
Li	      8.61608      6.20807     10.09177         0.013675      0.011647      0.095206
Li	      2.21262      4.07137      6.16217         0.012549      0.002210      0.078684
Li	      8.53581      8.22641      8.16298        -0.051803      0.024808     -0.009168
Li	      6.55393      6.18070      8.10454         0.003116      0.021982     -0.036435
Ti	      4.34813     10.30816      6.28498         0.474455     -0.075566      0.363198
Ti	      0.07138      4.04984      4.03396         0.136571     -0.246113     -0.065163
V	      6.41259      8.27510     10.11716        -0.045294      0.035503      0.075707
Cr	      4.23551      6.21662     10.22980        -0.190243      0.129058     -0.165727
Cr	      4.25292      2.11924      6.18505         0.001337     -0.025122     -0.128511
Co	      2.12885      0.17659      2.05668        -0.189508     -0.023781     -0.149781
Cu	      2.11800      4.11088      2.08461         0.144707     -0.195315      0.101084
Cu	      4.30677      6.18405      6.23002        -0.148326      0.118023      0.041929
Ni	      6.35748      4.18053      6.22121         0.112820     -0.137828     -0.075731
O	      2.10170      2.16412      2.09468        -0.034454     -0.118682     -0.023958
O	      4.43519      4.14071      1.99690        -0.105735      0.135514     -0.081098
O	      4.43886      1.99766      4.13290        -0.033899      0.034861     -0.038813
O	      6.54606      4.06363      4.04226         0.003831     -0.158300      0.075357
O	      6.33684      2.01912      6.00919         0.035799     -0.095678      0.009948
O	      8.61598      4.20570      6.07911         0.064214     -0.144135      0.076075
O	      1.93326      4.17722      4.11929        -0.163772      0.036831     -0.089477
O	      4.19979      6.32547      4.25908         0.064371      0.209192     -0.086029
O	      4.33329      4.13643      6.13216        -0.215715     -0.016292      0.098086
O	      6.55503      6.16434      6.14617         0.081078      0.201975     -0.021189
O	      6.24977      4.14614      8.31889         0.016542     -0.007117      0.302689
O	      8.57082      6.06316      8.13401         0.057772      0.288537      0.007131
O	      1.93136      6.26706      6.29913        -0.396402     -0.057640     -0.171938
O	      4.19393      8.41417      6.07195        -0.005137      0.145262     -0.006230
O	      3.99305      6.26364      8.18743         0.167366     -0.030975      0.092570
O	      6.34994      8.22445      8.36885         0.044896      0.007249     -0.114350
O	      6.27799      6.22340     10.33990         0.036374     -0.005490     -0.056060
O	      8.41996      8.35782     10.27354         0.089114     -0.098771     -0.044086
