# total energy = -226.91119070 eV
 
CRYSTAL
PRIMVEC
-0.010964 6.190761 6.252800 
6.533129 0.014177 6.227322 
4.356798 4.110662 0.007992 
PRIMCOORD
36 1
Li	      4.26607     10.17170      6.21704         0.008726      0.081850      0.069939
Li	      4.27725      8.09184      8.28754        -0.070799      0.037305      0.069512
Li	     10.78925      6.26209      8.36237         0.083513     -0.018513     -0.065890
Li	      6.41994      6.25765      4.32485         0.030891     -0.121831     -0.012668
Li	      4.23064      4.21413      4.31727         0.154008     -0.057124      0.007782
Li	      8.51523      6.19661      6.17763        -0.017437      0.002933     -0.021957
Li	      6.59844      4.25467      6.22552        -0.037488     -0.019164     -0.042717
Li	      6.43195      8.16114      6.10062         0.075014      0.069755      0.067854
Li	      4.50088      6.23524      6.11785         0.036883     -0.036124      0.029988
Ti	      6.44621      2.02570      4.32106        -0.517673      0.157322      0.235464
Ti	      4.43782      4.16242      8.10891        -0.031943     -0.035200     -0.689421
V	      6.19839      4.15886      2.07404        -0.127246      0.046256      0.287553
Cr	      2.22133      8.22508      6.25889        -0.122487     -0.055957      0.120105
Cr	      6.55777      6.23382      8.23537        -0.058679      0.078363     -0.064261
Co	      8.73725      4.19267      8.31424         0.050063     -0.051325      0.319712
Cu	      8.71769      4.12307      4.25014        -0.104249      0.028179     -0.005108
Cu	      4.44531      8.16908      4.24756         0.081609      0.077938     -0.043377
Cu	      2.30107      6.12922      4.19983        -0.116090      0.036159      0.056543
O	      2.16602      1.86555      2.05721         0.037512      0.054162     -0.033989
O	      4.46989      4.07113      2.05116        -0.115012      0.000900      0.009908
O	      4.57750      1.94323      4.17858         0.321118      0.276132      0.020822
O	      6.44654      4.01120      3.94146         0.032079     -0.062182      0.062994
O	      6.67931      2.08129      6.14990         0.094159     -0.067769     -0.233392
O	      8.71711      4.02648      6.27491         0.063461     -0.053310      0.403996
O	      2.27017      4.15445      4.04906        -0.051316     -0.112456     -0.626211
O	      4.23315      6.24314      4.14033         0.025805      0.108243      0.035005
O	      4.41507      4.19631      6.33118        -0.059110      0.000595      0.572552
O	      6.52563      6.22150      6.31341        -0.041653      0.051367     -0.065228
O	      6.41354      4.22199      8.37244         0.066058     -0.081858     -0.047819
O	      8.62217      6.31160      8.19402        -0.039240      0.155724     -0.118617
O	      2.17938      6.17290      6.55001         0.073936     -0.117875     -0.182236
O	      4.19053      8.21807      6.19746        -0.029555      0.034735      0.035606
O	      4.51996      6.11900      8.46412         0.007102     -0.127385     -0.141910
O	      6.69424      8.34802      8.39409         0.097689     -0.122935      0.007029
O	      6.77937      6.27499     10.32102         0.145949     -0.074173      0.053341
O	      8.54494      8.30813     10.46562         0.054401     -0.082733     -0.070905
