# total energy = -227.12485919 eV
 
CRYSTAL
PRIMVEC
-0.016020 6.245735 6.244741 
6.222407 -0.009682 6.238463 
4.157354 4.168677 -0.015475 
PRIMCOORD
36 1
Li	      2.10497      2.09400      0.04124         0.020661      0.029043     -0.011244
Li	      2.11393      6.25588      8.26878         0.024307     -0.090913     -0.022072
Li	      6.15704      6.34740      4.31466        -0.072787      0.043626      0.008042
Li	      8.13584      6.35614      6.28235         0.014784     -0.032430      0.029499
Li	      2.14374      6.17433      4.12180         0.006219     -0.031950     -0.040639
Li	      6.32436      8.15051      6.24262        -0.020698     -0.014195      0.052274
Li	      4.28095      6.15558      6.27225        -0.025267      0.016710      0.027095
Li	      4.09842      4.15045      8.13265        -0.060233      0.108375     -0.000493
Li	      6.24540      6.26614      8.09138         0.056743     -0.041180      0.077913
Ti	      4.08807      0.04695      4.12410        -0.071179      0.143293     -0.169277
Ti	      6.27492      8.31767     10.31467         0.085153     -0.016635     -0.368408
V	      0.12419      6.22438      6.27588        -0.179245     -0.112745      0.086474
Cr	      6.22662      2.06150      8.29346        -0.150401      0.164714      0.188067
Cr	      4.16618      8.27765      4.17841         0.070665     -0.115880     -0.206502
Co	      8.26956      4.18444      8.33232         0.302426     -0.207403     -0.238982
Ni	      4.10199      8.29304      8.26042         0.002902      0.071911     -0.031191
Ni	      4.04616      4.22029      4.27420         0.023063     -0.009716     -0.199326
Ni	      6.12750      4.27713      6.29179         0.133730     -0.185426      0.105313
O	      2.05346      2.24521      2.04628        -0.218438      0.358677      0.107181
O	      4.14487      4.17536      2.04125         0.071906      0.144109     -0.115260
O	      4.26933      2.01876      4.12564         0.039824     -0.122658      0.107502
O	      6.29325      4.03505      4.20449         0.147192     -0.077744     -0.171309
O	      6.24282      2.01133      6.20432         0.034668     -0.112141      0.038796
O	      8.43070      4.17171      6.12256         0.010966     -0.006951      0.113583
O	      1.99173      4.17667      4.11243        -0.170151      0.046789     -0.208660
O	      4.12735      6.29973      4.03757        -0.019805      0.064620      0.003545
O	      4.14754      4.17771      6.20369        -0.120869     -0.046706      0.199795
O	      6.21534      6.21272      6.22646        -0.025352      0.178129     -0.046000
O	      6.22866      4.06467      8.39068        -0.121070      0.094976      0.172033
O	      8.38911      6.06522      8.29243        -0.031983     -0.235499      0.180174
O	      1.86175      6.26874      6.25258         0.246149      0.039377      0.024739
O	      4.11854      8.43271      6.19614         0.001429      0.026321     -0.286029
O	      4.10549      6.28503      8.50497        -0.040502     -0.114742      0.200570
O	      6.18768      8.29543      8.48748         0.121347      0.016909      0.338521
O	      6.14465      6.24776     10.48524        -0.041003     -0.022018      0.042259
O	      8.24814      8.41893     10.38593        -0.045151      0.049351      0.012016
