# total energy = -230.20242633 eV
 
CRYSTAL
PRIMVEC
0.023252 6.120724 6.463359 
6.263540 0.004289 6.482068 
4.168365 4.085597 0.009811 
PRIMCOORD
36 1
Li	      2.17445      2.01853      0.14354        -0.026101     -0.044760      0.038224
Li	      2.10664      0.11924      2.22972         0.016705      0.008955      0.032948
Li	      4.19835      8.12346      8.67001        -0.014208     -0.012678     -0.035207
Li	      4.17939      6.10955      2.33609         0.039837     -0.020953     -0.017026
Li	      6.18505      6.09629      4.35113         0.041398      0.018682     -0.038154
Li	      4.20860      4.13921      4.26381        -0.015546      0.010243     -0.029101
Li	      8.29215      6.11438      6.44211         0.017461     -0.002401      0.024746
Li	      4.21807      6.16519      6.35375        -0.031152      0.003874      0.021268
Li	      6.26049      6.12564      8.47009        -0.031314      0.030374      0.006566
Ti	      0.10916      0.04539      0.10250         0.397439      0.049052      0.109892
Ti	      4.16419      4.16067      8.57195        -0.256264      0.399890      0.215384
V	      8.35395      4.07974      8.63094         0.077601     -0.073186      0.089596
Cr	      6.27094      4.10687      6.44149        -0.014690     -0.073491     -0.135726
Cr	      6.28867      8.09820      6.45551        -0.005257      0.088181      0.023793
Co	      6.14622      2.07373      4.33216         0.084310     -0.068655     -0.036321
Co	      4.18163      8.09740      4.31886        -0.063891     -0.001289      0.066677
Cu	      2.14219      6.10167      4.29624        -0.068581      0.110034      0.030801
Ni	      4.17209      0.03137      4.30698         0.001132     -0.068667     -0.000946
O	      2.08205      2.26826      2.21573        -0.021552      0.031970      0.007493
O	      4.07292      4.13348      2.02547        -0.019219      0.031708     -0.159954
O	      4.35210      2.04073      4.25032        -0.017680      0.143066      0.003417
O	      6.31956      4.06664      4.43614        -0.146933     -0.041766      0.086533
O	      6.31946      2.02410      6.37145        -0.057836     -0.052558     -0.011406
O	      8.33632      4.06558      6.57893         0.004438      0.010304     -0.027218
O	      2.08953      4.11387      4.33726         0.140433     -0.158627      0.023046
O	      4.07373      6.15232      4.34006         0.145010     -0.017821      0.030058
O	      4.19933      4.05861      6.60979         0.038557     -0.005155      0.075271
O	      6.26167      6.11295      6.41774         0.012305     -0.066139     -0.034430
O	      6.22713      4.06341      8.51785        -0.081449      0.007493      0.010561
O	      8.31326      5.98802      8.58243        -0.014244      0.071924     -0.179034
O	      2.00570      6.06961      6.60743        -0.333318      0.003969      0.117850
O	      4.28287      8.26512      6.48536         0.013478      0.063380     -0.076465
O	      4.19304      6.00886      8.70092         0.033536     -0.439111     -0.108164
O	      6.39900      8.11623      8.51945         0.235821      0.001466      0.007344
O	      6.26364      6.10578     10.97998         0.004375      0.057550      0.073723
O	      8.25991      8.12363     10.61512        -0.084601      0.005143     -0.206038
