# total energy = -230.11255441 eV
 
CRYSTAL
PRIMVEC
-0.017436 6.252852 6.315466 
6.251206 0.014287 6.283642 
4.165371 4.145272 0.011735 
PRIMCOORD
36 1
Li	      6.31423      6.25799     12.41820         0.154918     -0.012939     -0.031283
Li	      8.32254      8.23335     12.46795        -0.049985     -0.109202     -0.005523
Li	      2.10437      6.20582      8.33288        -0.026839      0.006099     -0.159267
Li	      6.34921      8.27369     10.55054        -0.014197      0.037959      0.087508
Li	      6.23762      6.24539      4.28637        -0.010278     -0.029141      0.000200
Li	     10.26074      8.41381     10.61129        -0.000454      0.022221     -0.002209
Li	      8.22438      6.38894     10.57640        -0.008037     -0.035363      0.105323
Li	      4.10605      6.25052      6.27878        -0.159801     -0.043604     -0.038628
Li	      8.22116      8.37127      8.57120        -0.018979      0.003770      0.067927
Ti	      4.21485      8.23378      8.31919        -0.017854     -0.105041     -0.067875
Ti	      6.28681      2.15403      8.30633         0.010860      0.102592     -0.159138
V	      4.21352      4.19517      4.24447         0.150221      0.033433     -0.285911
Cr	      8.31720      4.09211      4.25591        -0.046183      0.002231      0.063616
Cr	      2.10691      4.14790      2.11624        -0.112663      0.133450     -0.150772
Co	      2.05524      4.23114      6.26185        -0.078457     -0.293760      0.224733
Co	      6.24889      6.27785      8.48075         0.032700     -0.168241     -0.087456
Ni	      4.15414      2.10137      6.26714         0.015691      0.031223     -0.005219
Ni	      6.23528      4.22139      6.29426        -0.004659      0.033587      0.071515
O	      2.06093      2.14574      2.06621         0.053125     -0.027894     -0.048018
O	      4.12515      4.13973      2.17619        -0.026626     -0.056760     -0.040450
O	      4.16339      2.16530      4.10385         0.029260     -0.011637     -0.152328
O	      6.20423      4.15984      4.28065         0.044236     -0.010432     -0.085203
O	      6.22693      2.08775      6.43336         0.094344     -0.040788      0.269239
O	      8.26857      4.23543      6.32463         0.178189     -0.169916      0.095944
O	      2.24372      4.12150      4.13792        -0.137945      0.001169      0.524303
O	      4.21994      6.03138      4.06563         0.016999      0.099703     -0.070869
O	      4.15129      4.15030      6.16660        -0.633733      0.203704      0.256541
O	      6.28242      6.36150      6.39674        -0.110623      0.195173      0.067274
O	      6.33037      4.09073      8.39727         0.071116     -0.229145      0.075853
O	      8.47536      6.18168      8.39629        -0.058858      0.030111      0.069495
O	      2.08045      6.06124      6.26962        -0.016941     -0.066467      0.051672
O	      4.16576      8.29004      6.45188         0.602376      0.079500      0.052797
O	      4.07572      6.35384      8.52740         0.125496      0.247825     -0.074839
O	      6.11184      8.33770      8.37985        -0.034475      0.159595     -0.697973
O	      6.11206      6.25301     10.45258        -0.014839      0.004270      0.057300
O	      8.29810      8.42285     10.52113         0.002897     -0.017290      0.021721
