# total energy = -46.52861219 eV
 
CRYSTAL
PRIMVEC
-0.000632 2.044188 2.046440 
2.031112 2.085085 -4.134415 
-4.088211 2.081308 -2.082335 
PRIMCOORD
8 1
Li	     -1.99513      4.02650     -2.00113         0.042684      0.152736     -0.105472
Li	     -0.04274      2.12630     -2.12612         0.069166     -0.025849     -0.015490
Mn	      0.00008      0.00151      0.00060         0.156139     -0.849968      0.669901
Ni	     -2.02386      2.04386     -0.01730        -0.318123     -0.069776      0.204003
O	     -2.04192      4.23146     -4.23574        -0.264499      0.382622     -0.447228
O	     -2.14879      2.04482     -2.04203        -0.119336      0.197905     -0.351370
O	      0.11198      4.10724     -2.08564         0.112885      0.017788      0.067414
O	      0.00500      1.92022      0.10791         0.321084      0.194542     -0.021759
