# total energy = -224.19964072 eV
 
CRYSTAL
PRIMVEC
0.036266 6.128930 6.434993 
6.153347 0.027908 6.441990 
4.116799 4.105685 0.004218 
PRIMCOORD
36 1
Li	      8.15362      2.10072      6.47531         0.004203      0.010670      0.044703
Li	      6.26808      8.22055     10.71995        -0.072743      0.003950      0.043590
Li	      0.15945      2.12117      2.16015        -0.034484      0.026417     -0.024248
Li	      2.06883      3.94635      2.22937         0.010683      0.083008      0.017449
Li	      2.03991      2.06086      4.11585         0.019815      0.041752     -0.017569
Li	      6.18807      4.07308      6.44446        -0.004067     -0.038477      0.054929
Li	     10.24877      8.17617     10.66864        -0.013539     -0.013634      0.029582
Li	      2.15100      6.20717      4.32615         0.030400     -0.001844      0.025014
Li	      2.09915      4.10671      6.37498        -0.020079      0.044483     -0.087693
Ti	      8.18976      6.09688      6.43782         0.010967     -0.249322     -0.099051
Ti	      6.22516      6.11737      8.74784         0.042056     -0.202313      0.068689
V	      0.10547      6.05310      6.37241         0.035249     -0.211216      0.021443
Cr	      4.09353      4.16531      4.27631        -0.229403      0.019476     -0.039276
Cr	      4.14792      6.19942      6.36857        -0.029913      0.082406      0.102784
Cu	      4.05068      2.08419      2.17856         0.041418     -0.022768     -0.096723
Cu	      8.09174      4.05540      4.34312         0.043807      0.111353      0.076074
Ni	      6.14673      4.14245      2.16539         0.048748     -0.079567     -0.105584
Ni	      8.21080      8.23817      8.67642         0.065974     -0.025976     -0.164505
O	      8.21557      8.28891     10.66194         0.000110     -0.085729      0.127184
O	      2.13004      2.02279      2.13478        -0.104231      0.108032     -0.029579
O	      4.13647      4.06478      2.14776        -0.138073      0.149359      0.142676
O	      4.08069      2.08610      4.53797         0.008072      0.145036      0.217490
O	      6.06008      4.08365      4.24161        -0.125090     -0.023911      0.129307
O	      6.06302      1.85890      6.49204        -0.099230      0.160145      0.018717
O	      8.30038      4.20133      6.50624        -0.068442      0.204308      0.151000
O	      2.28735      4.09706      4.25842         0.215718      0.004272      0.010763
O	      4.15968      6.06313      4.40196         0.024912     -0.105650     -0.138671
O	      4.15338      4.13498      6.33983         0.008194     -0.069956     -0.060800
O	      6.20215      6.15805      6.60128         0.114336     -0.009571      0.000544
O	      6.14004      4.24091      8.61256         0.091392      0.242970      0.023152
O	      8.12203      6.23850      8.47596        -0.155458     -0.130023      0.045114
O	      2.07426      6.14717      6.46204         0.111482      0.009849     -0.149063
O	      4.17300      8.30050      6.29148        -0.021669     -0.042520     -0.056338
O	      4.17823      6.19011      8.38259         0.100682     -0.041825     -0.145132
O	      6.11395      8.11920      8.61473         0.034624     -0.120333     -0.006167
O	      6.15521      6.16026     10.74226         0.053579      0.027151     -0.129806
