# total energy = -225.68706866 eV
 
CRYSTAL
PRIMVEC
-0.032793 6.311202 6.393514 
6.119180 0.002366 6.358423 
4.105106 4.210369 -0.025289 
PRIMCOORD
36 1
Li	      8.13847      8.43336     12.66849        -0.020120      0.011227     -0.097000
Li	      6.17478      8.45836     10.51782         0.033838     -0.086438      0.004921
Li	      2.03463      4.22495      2.19547        -0.049302      0.047963      0.036509
Li	      4.09610      4.22540      4.21240        -0.060712      0.032943      0.026681
Li	      6.10334      4.21486      6.31729         0.004743     -0.009022      0.078345
Li	      8.15217      6.32035     10.54063        -0.014653     -0.001832      0.007108
Li	      4.08475      6.30863      6.41037        -0.037822      0.015208     -0.047891
Li	      8.16475      8.42978      8.54825         0.033905     -0.091585      0.029055
Li	      6.04082      6.29426      8.53292         0.051994     -0.107137      0.020872
Ti	      8.15363      6.29163      6.32667        -0.007685     -0.040433     -0.000509
Ti	      2.05357      4.25089      6.43011         0.092283      0.073468     -0.232844
V	      6.16526      2.18540      8.50456        -0.103052      0.196551      0.137486
Cr	      6.09638      6.31117     12.72966         0.162174     -0.010062     -0.065534
Cr	     10.14636      8.42694     10.57400         0.531797      0.035328     -0.151825
Cu	      6.14317     10.47746      8.54970        -0.053314     -0.010591     -0.071343
Cu	      4.03188      2.09647      2.14212        -0.080319      0.004169     -0.066419
Cu	      8.13058     10.50092     10.58271         0.278494      0.011699      0.127582
Ni	      6.12577      6.29960      4.24320        -0.042814      0.118816      0.009316
O	      3.96628      6.43009      8.60053         0.012688     -0.004794     -0.086718
O	      1.94939      2.22804      2.13150         0.054555     -0.058725     -0.070120
O	      4.17365      4.20166      2.00745        -0.081776      0.044656      0.014640
O	      4.10769      2.09840      4.42706         0.097982     -0.029058      0.228362
O	      6.19776      4.27268      4.17059        -0.178817     -0.112573     -0.003960
O	      6.08438      2.04225      6.46767        -0.071766     -0.017464     -0.011170
O	      8.23467      4.30651      6.27148        -0.179849      0.166097      0.205329
O	      1.95545      4.15893      4.40989         0.170115      0.102118      0.169535
O	      4.06885      6.38533      4.09709        -0.125113     -0.046364     -0.048145
O	      3.97986      4.09531      6.39957        -0.131034     -0.067312      0.007230
O	      6.20216      6.35078      6.36156         0.144193      0.048998      0.126621
O	      6.09852      4.10982      8.58034         0.027846     -0.062658     -0.071952
O	      8.36220      6.24321      8.34961        -0.055484      0.000601     -0.117548
O	      2.00158      6.19751      6.42019         0.011414     -0.131445     -0.012508
O	      4.11133      8.48267      6.22595         0.089103      0.013418      0.015924
O	      5.98793      8.27417      8.31374         0.105440      0.024713     -0.043109
O	      6.06427      6.24574     10.70600        -0.020486      0.028042     -0.043648
O	      8.19493      8.50005     10.57902        -0.588447     -0.088524     -0.003274
