# total energy = -225.17571076 eV
 
CRYSTAL
PRIMVEC
-0.006092 6.210212 6.320711 
6.257423 0.014844 6.299184 
4.178448 4.133222 0.003157 
PRIMCOORD
36 1
Li	     10.26134      4.14610      6.27588         0.049964     -0.030995     -0.005650
Li	      8.40034      2.21535      6.27807         0.078811     -0.099330     -0.025478
Li	      8.39875      4.18744      4.30003        -0.017377      0.034885     -0.044964
Li	      4.20543      6.15807      2.10696         0.023549     -0.003439     -0.010489
Li	      2.11005      4.07543      2.03089        -0.013630     -0.010368     -0.000625
Li	      2.08986      2.12220      4.22207         0.050341     -0.104721     -0.053294
Li	      6.23069      8.06639      6.27195        -0.029409      0.103914      0.023668
Li	      4.30107      6.26611      6.26107        -0.069343      0.089262     -0.008679
Li	      6.32114      6.21548      8.38737        -0.023378      0.018913      0.045553
Ti	      2.07242      6.10373      4.22922        -0.294664      0.081280     -0.055833
Ti	      4.24795      4.19807      8.46059         0.173298      0.026248     -0.000166
V	      2.04807      6.27336      8.14426        -0.165440      0.108342      0.115523
Cr	      4.18172      8.28471      8.32380        -0.142900      0.056531      0.146205
Cr	      6.26357      4.16909      6.29848        -0.079232     -0.094813     -0.131052
Cu	      6.21153      2.08723      4.23866         0.188053     -0.314089     -0.075684
Cu	      4.17437      4.16603      4.17753        -0.229966      0.138369     -0.004165
Cu	      8.30380      6.15337      6.30147         0.076371      0.072660      0.106266
Cu	      4.19450      8.25137      4.36506        -0.005298      0.079375     -0.209926
O	      6.33731      6.13024      6.32461         0.117034      0.031572      0.051562
O	      2.17335      1.95712      2.07975         0.108718     -0.022785     -0.107744
O	      4.30862      4.08606      1.95697         0.059448     -0.146221     -0.088740
O	      4.22365      2.15394      4.00606        -0.309906      0.139406     -0.230271
O	      6.13140      4.13421      4.22168         0.027317      0.332779      0.192411
O	      6.12479      2.14327      6.21305        -0.130797     -0.015565      0.183011
O	      8.22562      4.19956      6.30556         0.010586      0.024582     -0.009525
O	      2.20052      4.21756      4.20318         0.092496     -0.035277      0.008747
O	      4.03376      6.22523      4.26507         0.245643     -0.274737      0.061575
O	      4.20642      4.07375      6.54359        -0.013738     -0.081977      0.215083
O	      6.13758      4.16826      8.45441        -0.131389      0.012590     -0.266418
O	      8.32889      6.34720      8.63908        -0.004793      0.070795      0.194131
O	      2.13356      6.20021      6.37900        -0.011992      0.021082     -0.268784
O	      4.20179      8.24896      6.31518         0.024124     -0.022300      0.396853
O	      4.06390      6.19137      8.47034         0.012104     -0.161568     -0.040617
O	      6.27493      8.38573      8.47921         0.048667     -0.031395     -0.116146
O	      6.37464      6.19414     10.58688         0.138356      0.009786     -0.037114
O	      8.25500      8.22746     10.48279         0.148372     -0.002788      0.050776
