# total energy = -238.87653417 eV
 
CRYSTAL
PRIMVEC
0.001325 6.367752 6.226489 
6.280869 -0.004602 6.232313 
4.176593 4.238447 0.007851 
PRIMCOORD
36 1
Li	      6.31542      0.05163      6.23402         0.026485      0.069334      0.044615
Li	      6.23421     10.53865      8.22176        -0.071778      0.006758     -0.019512
Li	      6.33635      8.40984     10.44833         0.051596     -0.018013      0.017435
Li	      6.17245      2.14262      8.21793        -0.005052     -0.024401      0.041363
Li	      8.37376      4.29273      8.24034         0.057117     -0.013263     -0.009631
Li	      4.33794      2.05734      6.28538         0.055965     -0.026939     -0.010366
Li	      6.23368      4.32173     10.40564        -0.061215      0.015202      0.023202
Li	      8.29627      6.41212     10.46321        -0.024497      0.085116      0.014217
Li	      2.05077      4.33819      6.25056         0.000834      0.046570     -0.036372
Ti	      2.07529      2.15483      4.02166        -0.077421      0.128758     -0.279326
Ti	      4.17911      4.22304      4.08178        -0.030642      0.035993     -0.438207
Ti	      6.39318      6.30190      8.37306         0.188853     -0.279612      0.156290
Cr	      8.34322      2.10956      6.24987         0.093332      0.126521     -0.149555
Cr	      8.35888     10.58926     10.39193         0.031506     -0.287044     -0.029388
Cr	      4.14396      6.35493      6.26277        -0.071202     -0.096225     -0.052782
Co	      8.33452      8.42728      8.32746         0.100880      0.013522      0.075142
Cu	      4.25566      8.55367      8.22206        -0.004000      0.238502      0.036353
Cu	      6.30127      4.16054      6.29425         0.017702      0.010699     -0.013723
O	      2.12852      2.18060      2.13949        -0.069843      0.025785      0.206953
O	      4.17662      4.33878      2.24427        -0.032547     -0.003763      0.440635
O	      4.10591      2.13645      4.13494        -0.042451      0.000045      0.171028
O	      6.26789      4.37179      4.05231        -0.070514      0.130432     -0.241011
O	      6.36052      2.21366      6.25917        -0.155647     -0.134706      0.032663
O	      8.39050      4.16399      6.13274         0.072071     -0.023941      0.151312
O	      2.23147      4.07684      4.19789         0.098561     -0.203219     -0.003567
O	      4.28778      6.24724      4.22677         0.130596     -0.065170      0.033453
O	      4.18581      4.31077      6.14518        -0.000680      0.012938     -0.285048
O	      6.19581      6.23046      6.21057         0.017447      0.090130      0.058061
O	      6.24046      4.37750      8.40816        -0.118016      0.145453      0.136183
O	      8.26106      6.35870      8.34349        -0.340222      0.316876     -0.021541
O	      2.15880      6.46581      6.22246        -0.047923     -0.027787      0.038260
O	      4.10740      8.35776      6.28183         0.110118     -0.041205     -0.154561
O	      4.23837      6.26139      8.30589        -0.047440     -0.338478      0.009792
O	      6.23495      8.31490      8.25929         0.246030     -0.104040     -0.021950
O	      6.18504      6.37725     10.29615        -0.021543      0.046827     -0.186847
O	      8.34435      8.60131     10.45884        -0.006461      0.142345      0.266432
