# total energy = -237.47759760 eV
 
CRYSTAL
PRIMVEC
-0.001927 6.318518 6.284079 
6.327031 0.033923 6.248498 
4.232226 4.202556 0.008520 
PRIMCOORD
36 1
Li	      4.15126      4.25125      0.22414         0.012956      0.009876     -0.066089
Li	      6.19226      4.36288      2.12365        -0.043625     -0.007908      0.033538
Li	      4.37890      6.07281      2.04286         0.044184     -0.027584     -0.019288
Li	      2.29384      4.08366      1.99279         0.018823     -0.019787      0.004465
Li	      2.17429      2.04616      3.99794         0.073285     -0.096148     -0.005676
Li	      4.31545      4.11778      3.98011         0.004333     -0.008724      0.014302
Li	      8.48561      6.24683      6.25865         0.024373     -0.013244     -0.021517
Li	      4.21390      6.35373      6.39927        -0.027476      0.009095      0.013738
Li	      4.22959      4.34398      8.33105        -0.013146      0.035398      0.060391
Ti	      4.23941      8.36096      4.20163        -0.102630     -0.158313      0.107065
Ti	      8.51527      6.31518     10.33036         0.174407      0.004602     -0.255809
Ti	      2.29086      4.24828      6.34560         0.324320      0.220351      0.074416
Cr	      6.28036      2.17515      4.19773         0.044262      0.065778      0.028198
Cr	      6.30830      4.23551      6.28822        -0.119707      0.034596     -0.041760
Cr	      6.29277      6.35140      8.34098        -0.044923     -0.036663      0.150697
Co	      4.16754      0.09797      4.16964         0.042084     -0.133020      0.141813
Ni	      2.08132      2.11955      0.11741        -0.011786     -0.062301     -0.014830
Ni	      4.12467      2.19070      2.11423         0.063350     -0.059104     -0.079947
O	      2.13051      2.09080      2.07049        -0.130102     -0.004891      0.085497
O	      4.22835      4.16970      2.09082        -0.056323      0.164244     -0.036198
O	      4.34892      2.11187      4.17036        -0.070434     -0.359983      0.098556
O	      6.28326      4.14483      4.30715         0.208910     -0.019933     -0.096695
O	      6.33371      2.22566      6.17373        -0.093932      0.041895     -0.017202
O	      8.28343      4.20810      6.20851         0.033691      0.121455     -0.495134
O	      1.98640      4.28765      4.29049        -0.087619      0.094532      0.023516
O	      4.10275      6.47137      4.13882        -0.132842      0.261612     -0.011177
O	      4.14083      4.23563      6.29353        -0.307870      0.027155      0.034934
O	      6.31882      6.38252      6.34385        -0.027799      0.060148      0.044915
O	      6.26996      4.35630      8.43104         0.065041      0.052406      0.046703
O	      8.34134      6.34143      8.50262         0.009181     -0.041445      0.229090
O	      2.13608      6.17055      6.15627         0.061431     -0.271798     -0.037680
O	      4.27200      8.43497      6.11394         0.075850     -0.030718     -0.205133
O	      4.32852      6.37848      8.43272        -0.049546      0.114244      0.417040
O	      6.35027      8.38981      8.31572         0.038752     -0.046462     -0.088991
O	      6.43707      6.35123     10.38353        -0.028597      0.044432      0.018092
O	      8.47194      8.34316     10.51490         0.029123      0.036205     -0.133841
