# total energy = -239.39610599 eV
 
CRYSTAL
PRIMVEC
-0.012353 6.277259 6.247927 
6.282854 -0.018310 6.254145 
4.173647 4.174063 0.002559 
PRIMCOORD
36 1
Li	      6.10331      0.10344      6.15098         0.134922     -0.081687     -0.048086
Li	      8.25071      2.22531      6.17400         0.075776     -0.123875     -0.019888
Li	      8.37107      4.08370      4.38161         0.047101     -0.024183     -0.316795
Li	      6.34406      2.08183      4.37696         0.025365     -0.017248     -0.108750
Li	      8.39166      4.13329      8.09033         0.019556     -0.031747      0.097579
Li	      6.27236      6.22921      4.22945        -0.004497      0.008240      0.031859
Li	      8.46616      6.02729      6.18698        -0.028899      0.183605     -0.065400
Li	      6.48756      4.07245      6.14136        -0.166522      0.057848     -0.045752
Li	      2.04472      6.34407      4.28055        -0.005756      0.039140      0.101325
Ti	      4.06075      2.07039      2.06853         0.079292     -0.118485      0.098540
Ti	      4.13885      4.20019      4.31773        -0.020692     -0.164899      0.188192
Ti	      6.50573      6.17909      8.34052         0.240554      0.083231     -0.022688
Cr	      6.25291      4.13333      2.11084         0.009057     -0.180547     -0.053864
Cr	      6.28369      2.07753      8.22257        -0.067711      0.065924      0.182775
Cr	      4.17444      8.37401      4.20501         0.085896     -0.021578     -0.005335
Co	      2.07942      4.18567      6.20861        -0.049596      0.031383      0.128549
Co	      4.15134      6.29776      6.22874        -0.050502     -0.056588      0.008891
Cu	      8.38086      8.33537      8.39997         0.010879     -0.066581     -0.379009
O	      2.09368      1.97761      2.05303        -0.002244      0.112638      0.017840
O	      4.22401      4.18498      2.13215        -0.059413      0.055531     -0.013827
O	      4.08597      2.27037      3.98817         0.026671      0.053458      0.046920
O	      6.06336      4.18239      4.09956        -0.082704     -0.007072      0.103775
O	      6.27759      2.07729      6.34506        -0.009533     -0.018442     -0.130775
O	      8.36970      4.15730      6.22291        -0.007488      0.007752     -0.036789
O	      2.11408      4.18703      4.17736         0.093567     -0.009453     -0.014384
O	      4.16848      6.26221      4.07352         0.007908     -0.042071      0.026875
O	      4.19185      4.19234      6.20854         0.030917     -0.004098     -0.131108
O	      6.18668      6.29428      6.45753         0.030256     -0.026725     -0.009538
O	      6.34180      4.19446      8.42427         0.246930      0.023779     -0.026088
O	      8.36582      6.26591      8.29380        -0.124882     -0.191083     -0.053416
O	      2.15833      6.17957      6.38063         0.054471      0.020454     -0.061363
O	      4.15388      8.37305      6.28752        -0.056007      0.054093      0.065647
O	      4.11754      6.41933      8.39310        -0.057927      0.244957      0.046283
O	      6.10175      8.31914      8.37521        -0.323781      0.048945     -0.006807
O	      6.30678      6.17149     10.24866        -0.031678      0.047642      0.010917
O	      8.49412      8.34256     10.32183        -0.069284      0.047739      0.393694
