# total energy = -243.82632522 eV
 
CRYSTAL
PRIMVEC
0.022634 6.239568 6.304452 
6.232353 0.018796 6.308361 
4.182084 4.189605 -0.014639 
PRIMCOORD
36 1
Li	     10.36374     10.37617     12.56767        -0.010286     -0.061395      0.076295
Li	      4.15397      2.09354      2.19832         0.038163      0.013375     -0.028723
Li	      4.23600      0.14513      4.23803        -0.015557     -0.012281      0.001585
Li	      6.07980      2.03272      4.22391         0.009985      0.038310      0.046873
Li	      4.13100      4.04120      4.22558         0.004914      0.035532     -0.011792
Li	      4.18076      2.07761      6.11851         0.107086      0.056946      0.043887
Li	      4.18974      8.37444      4.26346         0.002422     -0.044235     -0.006524
Li	      6.23323      8.34264      6.25299        -0.047042      0.029392     -0.007684
Li	      4.17293      4.20389      8.44241         0.024146      0.030806      0.052287
Ti	      6.22259      4.05547      2.23017        -0.266570     -0.353409      0.353290
Ti	      6.20727      4.14160      6.25371        -0.254520     -0.534579     -0.100883
Ti	      8.28787      6.26864     10.48966         0.214577      0.040122      0.145610
Cr	      8.37816      8.36617     12.58105        -0.196660     -0.074448     -0.285897
Cr	      4.19324      6.29285      6.27558        -0.072227     -0.076920     -0.157620
Cr	      6.22757      6.32127      8.42283        -0.111728      0.042343      0.047798
Co	      4.18214      6.30203      2.14187        -0.095880      0.029667     -0.222078
Co	      2.18931      4.15507      2.10018        -0.058053     -0.030987      0.057351
Co	      2.19332      2.17107      4.21216         0.058129     -0.182795     -0.243476
O	      2.07351      2.00260      2.01321        -0.106301      0.265804      0.362767
O	      4.33345      4.22573      2.05116         0.459584      0.129018      0.055619
O	      4.11822      2.09002      4.20857        -0.191757      0.013620     -0.025239
O	      6.28353      4.20344      4.15127         0.081622     -0.251854     -0.193169
O	      6.28137      2.23651      6.34270         0.074600      0.232440     -0.263058
O	      8.25465      4.13347      6.31152         0.135492      0.075768      0.168400
O	      2.10543      4.26087      4.18256         0.024288      0.625312     -0.179037
O	      4.15048      6.27209      4.22072        -0.040392      0.013214      0.526599
O	      4.33833      4.25516      6.26949         0.130272      0.027576      0.039900
O	      6.21032      6.23456      6.39513         0.057768      0.097569     -0.264240
O	      6.28327      4.28373      8.26737        -0.218926     -0.046220      0.000432
O	      8.27757      6.30215      8.51953         0.186945     -0.170122     -0.115491
O	      2.16354      6.28462      6.28370        -0.038448     -0.006926      0.037672
O	      4.10043      8.26201      6.28435         0.076922      0.030515      0.078639
O	      4.15482      6.23894      8.31211         0.041341      0.029316     -0.005651
O	      6.28424      8.41900      8.38892        -0.006346      0.143911      0.017581
O	      6.35382      6.25982     10.42269         0.032052     -0.024662     -0.044082
O	      8.34608      8.19248     10.59226        -0.029615     -0.129722      0.042059
