# total energy = -46.58119785 eV
 
CRYSTAL
PRIMVEC
-0.000635 2.054512 2.056775 
2.041370 2.095616 -4.155296 
-4.108859 2.091820 -2.092852 
PRIMCOORD
8 1
Li	     -2.01534      4.06728     -2.02140         0.020637      0.076611     -0.051192
Li	     -0.04317      2.14784     -2.14765         0.035430     -0.016980     -0.007036
Mn	      0.00008      0.00152      0.00060         0.076756     -0.416341      0.334722
Ni	     -2.04436      2.06456     -0.01748        -0.150456     -0.035824      0.095753
O	     -2.06260      4.27431     -4.27863        -0.181858      0.220274     -0.248262
O	     -2.17055      2.06553     -2.06271        -0.084437      0.145347     -0.217602
O	      0.11311      4.14883     -2.10676         0.081013     -0.036915      0.080630
O	      0.00505      1.93967      0.10901         0.202914      0.063828      0.012987
