# total energy = -236.33127016 eV
 
CRYSTAL
PRIMVEC
-0.010758 6.298440 6.203671 
6.215454 -0.005639 6.198738 
4.155264 4.207288 -0.015346 
PRIMCOORD
36 1
Li	      4.20442     10.42250      6.17265         0.032980     -0.030156      0.005215
Li	      2.13560      8.36318      6.17634        -0.024122     -0.024936      0.028863
Li	      6.21852      2.09334      4.18277         0.009514     -0.025424      0.026176
Li	      6.14805      6.27161      4.17798        -0.026336      0.024052     -0.039722
Li	      4.14448      4.30649      4.17007        -0.066917      0.107523     -0.012176
Li	      4.12414      8.32240      4.29475         0.056846      0.005234      0.006032
Li	      4.18430      6.39744      6.07824         0.006210     -0.005776      0.022377
Li	      4.13851      4.19968      8.23981         0.014795      0.011989     -0.004648
Li	      6.21068      6.32526      8.20298        -0.004467     -0.010990     -0.018001
Ti	      6.17413     10.37820      8.23143         0.093168     -0.481013     -0.014789
Ti	      4.29673      6.20287     10.31453         0.268716     -0.069953     -0.141822
Ti	      2.02692      4.13907      2.13122        -0.232727      0.070392      0.443302
Cr	      4.12777      2.11806      6.16508         0.025417      0.079518     -0.008120
Cr	      6.15290      4.22036      6.11476        -0.002170     -0.049428      0.095857
Cr	      8.28477      6.38730     10.35791        -0.071950     -0.018296     -0.004592
Cu	      6.18749      8.33637      6.14732         0.201031      0.001831      0.045702
Ni	      4.14981      8.38117      8.25966         0.016596     -0.017044      0.091728
Ni	      4.14743      6.32429      2.07466         0.005465      0.033007     -0.032947
O	      2.09011      2.19130      2.06611         0.018533      0.033346     -0.022008
O	      4.17644      4.21397      2.05375         0.006785     -0.029102     -0.029232
O	      4.15196      1.90744      4.17785        -0.027407     -0.101256      0.037909
O	      6.27583      4.21838      4.04924         0.022352     -0.021994     -0.058968
O	      6.12205      2.22378      6.23278        -0.006796     -0.037365     -0.151503
O	      8.22972      4.25607      6.16089         0.057826     -0.004706     -0.039338
O	      2.05401      4.34127      3.97418         0.009249     -0.037036     -0.482637
O	      4.00622      6.34264      4.08268         0.068949      0.000131      0.125596
O	      4.13861      4.09829      6.18494        -0.061143     -0.023861     -0.063875
O	      6.27748      6.24793      6.17899        -0.083947     -0.065731     -0.072091
O	      6.34215      4.19418      8.12291         0.154308      0.102330      0.020373
O	      8.29564      6.19638      8.26508        -0.122066     -0.032387     -0.052152
O	      2.06814      6.31491      6.25711         0.012945      0.165122      0.094185
O	      4.27156      8.38356      6.27042        -0.114220      0.037038     -0.081961
O	      4.02011      6.31046      8.38021        -0.059567     -0.126207      0.153744
O	      6.20790      8.54093      8.34051         0.092257      0.416400      0.057100
O	      6.16935      6.29238     10.32143        -0.272176     -0.028743      0.039579
O	      8.30580      8.45723     10.34273         0.002069      0.153492      0.036844
