# total energy = -234.81559627 eV
 
CRYSTAL
PRIMVEC
0.017314 6.331332 6.480428 
6.174926 -0.019091 6.516628 
4.087673 4.215529 0.017242 
PRIMCOORD
36 1
Li	      8.16348      2.22390      6.38866         0.068277     -0.004937      0.034473
Li	      8.32464     10.35037     10.99965        -0.042046      0.061867      0.053178
Li	      6.06816      2.29182      8.49580         0.119404     -0.032654      0.011106
Li	      8.11444      4.39073      8.59144         0.116621     -0.086707     -0.030385
Li	      6.28026      4.15143      6.81750        -0.032941      0.026711     -0.016444
Li	      8.10637      6.48945     10.51798         0.058890     -0.045412     -0.053262
Li	      6.08280      8.38521      6.55106        -0.008821      0.015665      0.038293
Li	      8.34459      8.28933      8.83608        -0.102736      0.071397     -0.042965
Li	      6.24358      6.16235      8.77953        -0.110108      0.106774     -0.003059
Ti	      2.10943      6.24068      8.56941        -0.031437     -0.184215     -0.161757
Ti	      2.14692      2.01738      4.32361         0.088735     -0.216628     -0.140517
Ti	      3.98038      4.27897      4.36519         0.026594     -0.037102     -0.073742
Cr	      8.24188      6.30987      6.63627        -0.075967      0.094672     -0.014354
Cr	      6.13494      4.25836     10.76880        -0.053572     -0.000612      0.013254
Cr	      4.10152      6.32049      6.49246        -0.038582     -0.004268      0.163831
Cu	      6.15208      0.02498      6.47074         0.140829     -0.055210      0.040707
Cu	      4.13287      8.43341      8.57538        -0.035375      0.007966     -0.062309
Ni	      6.26439      8.33902     10.90816        -0.021454      0.078781     -0.093064
O	      2.13046      1.95369      2.36727        -0.166648     -0.045763      0.178498
O	      4.17958      4.14634      2.35415        -0.007076      0.158802      0.276170
O	      4.07110      2.23519      4.49185        -0.186920      0.041687      0.251299
O	      6.08772      4.29512      4.24894        -0.002115      0.164979      0.002053
O	      6.12672      2.19435      6.45523        -0.005701      0.008263      0.094572
O	      8.32139      4.34513      6.54813        -0.144530     -0.033145     -0.020839
O	      2.11078      4.06963      4.26135         0.019039     -0.039777      0.028102
O	      4.16540      6.25094      4.41414        -0.021391     -0.035801      0.045480
O	      4.05258      4.24462      6.28266         0.061058      0.022607     -0.060926
O	      6.12093      6.27063      6.30594         0.066884      0.005060     -0.038481
O	      6.19220      4.20291      8.82524         0.015083      0.019982     -0.020558
O	      8.19479      6.36600      8.54548         0.009130     -0.016158      0.012192
O	      2.03954      6.25705      6.69348         0.105846      0.045683      0.160569
O	      4.11530      8.26678      6.33161        -0.046526     -0.002420     -0.251897
O	      4.05819      6.40382      8.50139        -0.062791     -0.194505     -0.135014
O	      6.10581      8.56315      8.82289         0.157111      0.119204     -0.064327
O	      6.20979      6.23074     10.89417        -0.029290     -0.057131     -0.122928
O	      8.26171      8.41227     10.84741         0.172524      0.042344      0.003054
