# total energy = -235.91446270 eV
 
CRYSTAL
PRIMVEC
0.002894 6.191102 6.663989 
6.069159 0.020489 6.646465 
4.061781 4.131361 -0.002025 
PRIMCOORD
36 1
Li	      2.02260      2.11083      0.23136        -0.004919      0.023337     -0.046140
Li	      2.01219      0.13463      2.22105        -0.035167     -0.082632      0.023190
Li	      3.91530      2.08119      2.23122         0.099555      0.012206      0.009354
Li	      2.03099      4.01499      2.39656         0.016979      0.082260      0.027850
Li	      2.00186      2.20909      4.19956        -0.030380     -0.074336     -0.016916
Li	      3.91523      4.14452      4.34610         0.078007      0.040220      0.007251
Li	      6.13591      4.10277      6.67752        -0.032835      0.006156     -0.052284
Li	      2.06553      6.06248      4.45763         0.001469      0.084018      0.054934
Li	      2.03965      4.11871      6.46740         0.054297     -0.018703     -0.078869
Ti	      4.20106     10.26657      6.80901         0.122064      0.007127      0.232878
Ti	      7.98736      4.14443      4.40186        -0.276496     -0.241668     -0.071596
Ti	      4.11911      6.08160      6.52371         0.124059     -0.285617     -0.238699
Cr	      6.10963      8.22304     11.08458         0.162695      0.006211     -0.263692
Cr	      4.00383      2.11729      6.58155        -0.071108      0.111519      0.161813
Cr	      0.06329      4.13668      4.47579        -0.129073     -0.054013     -0.053794
Cu	      0.04562      2.08381      2.19937        -0.219071     -0.003707      0.007899
Cu	      8.09704      8.26770      8.87798        -0.211587      0.067873     -0.052979
Cu	      6.14207      6.18952      8.86528        -0.059016     -0.137549     -0.064363
O	      1.93699      2.08466      2.22394         0.141029      0.032150     -0.008323
O	      4.03042      4.17547      1.98050         0.004156     -0.072282     -0.254799
O	      4.09256      1.99242      4.50469        -0.076857     -0.019992      0.024666
O	      6.14363      4.04260      4.38643         0.297031      0.008913      0.004126
O	      6.00374      1.99691      6.45352         0.009452     -0.008536     -0.132839
O	      8.15640      4.26384      6.45357         0.005948     -0.055560     -0.016020
O	      1.96485      4.16119      4.40785         0.059931     -0.037763      0.008646
O	      4.01542      6.27602      4.67195         0.039801      0.016514      0.360926
O	      4.06255      4.20497      6.54356         0.016995      0.182969     -0.133466
O	      6.01242      6.19752      6.62424        -0.086357     -0.012779     -0.038862
O	      6.01323      4.14589      9.06840         0.177602     -0.143099     -0.064223
O	      8.15176      6.28380      8.60644         0.240715     -0.085229     -0.037945
O	      2.05781      6.18907      6.73281        -0.163435      0.007719      0.029459
O	      4.07982      8.30447      6.58195         0.013476      0.059786     -0.002073
O	      4.13168      6.17121      9.02857        -0.184564      0.134502      0.176801
O	      6.16387      8.14363      9.09144        -0.060775      0.277031      0.212201
O	      6.06201      6.19701     11.29467         0.002073     -0.008428      0.150226
O	      8.11854      8.40300     11.24930        -0.025695      0.181381      0.135658
