# total energy = -242.83283335 eV
 
CRYSTAL
PRIMVEC
0.032911 6.340944 6.349565 
6.241249 0.049634 6.332085 
4.182609 4.237494 0.011661 
PRIMCOORD
36 1
Li	      0.09599      6.33183      6.37439         0.058657     -0.016828     -0.025496
Li	      2.11549      2.12566      0.09426         0.024250     -0.020761      0.054024
Li	      2.11796      6.36541      8.45333         0.006338     -0.006706      0.019998
Li	      4.19695      8.47572      8.40272         0.003367      0.035991      0.036252
Li	      8.32443     10.58795     10.54483        -0.042009     -0.018097     -0.017652
Li	      2.13475      2.08840      4.13916        -0.000072     -0.028197     -0.028660
Li	      6.24973      4.23728      6.32093         0.036939     -0.010423      0.005288
Li	      6.24077      8.50373      6.44554        -0.019926      0.047732      0.030192
Li	      6.23587      6.47387      8.49208         0.037247     -0.001103      0.019887
Ti	      4.22872      4.26104      4.18476         0.149049      0.003289     -0.081634
Ti	      8.20909      6.21903      6.32891        -0.238013     -0.328830      0.137489
Ti	      4.10849      6.46181      6.48012        -0.357763      0.245894      0.275998
Cr	      6.30248      8.45976     10.58519         0.126551      0.103736     -0.039325
Cr	      6.31478      2.15632      8.36746        -0.075817      0.061091      0.021431
Cr	      4.15394      4.26977      8.41759         0.052571     -0.083158     -0.124859
Fe	      6.27960      4.42456     10.59117         0.064987     -0.190882     -0.045473
Co	      2.07762      4.14692      2.10855        -0.175041      0.154702     -0.042097
Cu	      2.09073      6.35334      4.30788         0.030793      0.014028     -0.004493
O	      2.01160      2.14653      2.12999         0.069324     -0.017503     -0.020289
O	      4.19207      4.30664      2.25423        -0.052786     -0.020032      0.112176
O	      4.21001      2.25706      4.31990         0.024025      0.045230      0.102720
O	      6.13131      4.16829      4.24855        -0.168615      0.004770      0.014285
O	      6.13303      2.14123      6.34200        -0.042070     -0.023524     -0.081072
O	      8.33072      4.39108      6.32130         0.010996      0.202345      0.058736
O	      2.21559      4.32794      4.20052         0.096802     -0.081590     -0.026470
O	      4.16100      6.29640      4.20661         0.206196     -0.137947      0.077681
O	      4.17210      4.30564      6.30751        -0.018141      0.024840     -0.089616
O	      6.32619      6.36517      6.31551         0.219269     -0.010799     -0.042819
O	      6.20206      4.14952      8.44935        -0.042744     -0.003737     -0.007664
O	      8.41495      6.45763      8.27550        -0.002083      0.027785     -0.316450
O	      2.26714      6.36345      6.43631         0.447440      0.010782      0.128395
O	      4.24151      8.31641      6.36872        -0.083402     -0.206877     -0.013850
O	      4.24126      6.28148      8.36099         0.021635     -0.001975     -0.175277
O	      6.36535      8.47594      8.60638        -0.031751      0.017495     -0.060605
O	      6.36298      6.43970     10.60689        -0.201763      0.073329     -0.043867
O	      8.31621      8.44879     10.44001        -0.134442      0.135929      0.193118
