# total energy = -239.42961866 eV
 
CRYSTAL
PRIMVEC
0.008472 6.350557 6.296966 
6.234404 0.029894 6.275536 
4.164285 4.227193 0.012071 
PRIMCOORD
36 1
Li	      4.20283      8.44821      8.38201        -0.040920      0.001426     -0.136908
Li	     10.17735      6.33352      8.46097         0.018382      0.020576      0.015365
Li	      8.35280      4.52208      8.39869        -0.024837     -0.006850     -0.025419
Li	      4.10844      4.30712      4.19568        -0.047805      0.097683      0.009460
Li	      8.26066      6.50161      6.52591        -0.037622      0.013093      0.038446
Li	      8.36340      6.35727     10.23154         0.063216     -0.030480      0.033840
Li	      2.26009      4.21278      6.32925         0.037314     -0.023698     -0.041580
Li	      8.33128      8.31515      8.33524         0.037261      0.008131     -0.021719
Li	      6.41572      6.32925      8.33601        -0.015340     -0.041952     -0.052812
Ti	      2.09660      2.14279      0.07490        -0.276928      0.105053      0.192495
Ti	      6.11951      8.37952     10.37620        -0.035896      0.130987     -0.050518
Ti	      2.14301      2.21051      4.17490        -0.465706      0.520904      0.201326
Cr	      4.14613      4.22814      0.08056        -0.010402      0.032775     -0.049373
Cr	      6.25704     10.56372      8.42951         0.011035      0.051050     -0.231414
Cr	      6.23762      4.25987     10.37000        -0.019627     -0.069338     -0.127662
Fe	      6.11770      4.27500      6.48125         0.416862     -0.280087      0.017725
Co	      4.17561      6.43176     10.41526        -0.137287      0.000387     -0.154949
Ni	      4.19179      6.31358      6.32197        -0.084862      0.062208     -0.007284
O	      2.08866      2.01193      2.08556         0.056465     -0.088497      0.184477
O	      4.23939      4.20326      2.00236         0.049631     -0.023430      0.150046
O	      4.14573      2.17869      4.18124         0.422066     -0.568427     -0.118472
O	      6.22701      4.18192      4.17774         0.185412     -0.215312     -0.038870
O	      6.32152      2.11938      6.17151        -0.091472     -0.163865     -0.163951
O	      8.31757      4.10031      6.35049         0.131514      0.167873     -0.168620
O	      2.01926      4.09310      4.18851         0.049891     -0.365004     -0.011384
O	      4.29789      6.46159      4.23400         0.185957     -0.028639     -0.153034
O	      4.24102      4.29680      6.25136        -0.357278     -0.105150     -0.053982
O	      6.27474      6.24998      6.13260         0.108007      0.184461     -0.332713
O	      6.24125      4.26178      8.38385        -0.036612      0.028565      0.317507
O	      8.30979      6.38753      8.38076        -0.005228      0.045082      0.074391
O	      2.02762      6.44805      6.39467        -0.025501     -0.158735      0.012541
O	      4.07317      8.53853      6.18868         0.165240      0.008717      0.041808
O	      4.06476      6.41266      8.31011         0.039861     -0.011011      0.464319
O	      6.24453      8.52907      8.53841        -0.055058     -0.037583      0.298809
O	      6.25148      6.37119     10.56175        -0.098190      0.416377      0.071433
O	      8.31093      8.45400     10.64739        -0.111541      0.322712     -0.183323
