# total energy = -238.47755462 eV
 
CRYSTAL
PRIMVEC
0.020098 6.294899 6.390058 
6.221662 -0.005072 6.414388 
4.139595 4.204950 0.004803 
PRIMCOORD
36 1
Li	      2.09096      8.36357      6.39472        -0.014438     -0.019947     -0.020303
Li	      4.13000      2.01337      2.30536         0.036261      0.010563      0.027654
Li	      4.06098      0.12282      4.22484         0.042675      0.025848      0.025795
Li	      2.09050      4.19771      2.15888         0.017929     -0.023646      0.034173
Li	      2.27394      2.07915      4.28400        -0.008647      0.036492      0.052350
Li	      4.16217      4.04827      4.37979         0.032208      0.050381      0.123900
Li	      4.10709      2.16414      6.28068         0.021886      0.074306     -0.078542
Li	      2.18847      4.16314      6.42946         0.037653     -0.039287     -0.009919
Li	      4.09627      4.23522      8.46968         0.039337      0.004461     -0.069257
Ti	      4.00316      4.14513      0.09844        -0.188401     -0.204368      0.164556
Ti	      0.09156      2.11543      2.07289         0.278443     -0.043789      0.084111
Ti	      4.13646      8.37734      4.28850         0.138861     -0.190395      0.255688
Cr	      6.16269      2.15445      4.22464        -0.005397     -0.001272      0.120123
Cr	      6.23826      4.25158      6.37321        -0.038338      0.052316      0.003588
Cr	      6.24866      6.33458      8.48062         0.027322     -0.029173     -0.124326
Fe	      2.09167      6.27090      4.25653         0.063592     -0.081315      0.107055
Cu	      2.22731      6.30118      8.58575         0.032374      0.044537      0.034630
Cu	      4.07909      6.22499      6.53717        -0.088943      0.181532     -0.236191
O	      1.91807      2.11606      2.13489        -0.319132     -0.128077     -0.023778
O	      4.07993      4.32615      1.96505         0.076379      0.012880     -0.203982
O	      4.24197      2.12212      4.25861         0.081581     -0.038680      0.010931
O	      6.24765      4.10447      4.41657        -0.009253      0.026875     -0.038765
O	      6.18542      2.08402      6.47188         0.026018      0.003612      0.010437
O	      8.35339      4.17016      6.39723         0.170408     -0.010699      0.027575
O	      1.91032      4.26685      4.25829        -0.243513     -0.044062     -0.040588
O	      4.12045      6.42516      4.14342         0.018759      0.153562     -0.287924
O	      4.27518      4.29869      6.40541         0.021837     -0.293095     -0.034639
O	      6.34489      6.21609      6.51889         0.112409      0.030972      0.024658
O	      6.23896      4.15620      8.56266         0.022915     -0.011339      0.021340
O	      8.34304      6.28769      8.67434         0.027448     -0.015983     -0.073133
O	      1.86458      6.31160      6.21381        -0.194320      0.033962      0.004027
O	      4.10750      8.48315      6.23799        -0.035477      0.241495     -0.238397
O	      4.29481      6.30084      8.46358        -0.179086      0.022874      0.396917
O	      6.24426      8.29995      8.64749         0.024219      0.157479     -0.009122
O	      6.21605      6.26092     10.63532        -0.030992     -0.007446     -0.011852
O	      8.36461      8.32085     10.67064         0.005424      0.018422     -0.028790
