# total energy = -240.20719560 eV
 
CRYSTAL
PRIMVEC
0.004899 6.344478 6.228624 
6.329638 0.010883 6.222743 
4.230893 4.236850 -0.003770 
PRIMCOORD
36 1
Li	      6.23510     10.47979      8.29129        -0.108126     -0.047442      0.004308
Li	      4.35666      8.55854      8.27794         0.071433      0.099549     -0.023421
Li	     10.47235      6.28542      8.29835        -0.017192     -0.068199      0.009316
Li	      4.23417      4.25336      4.25255        -0.026713      0.038137     -0.001184
Li	      4.13458      2.29672      6.26674        -0.023676      0.032031     -0.070715
Li	      6.16631      4.32589      6.23157         0.036909     -0.004107     -0.000935
Li	      2.16568      6.31346      4.12442         0.068686     -0.053793      0.073412
Li	      2.27011      4.17307      6.27869        -0.005710     -0.017332     -0.038324
Li	      4.29845      6.18456      6.25458        -0.001354      0.030826     -0.004395
Ti	      2.08505      2.02581      0.18398        -0.138580     -0.345172      0.329205
Ti	      4.15451      0.08561      4.07550        -0.273451      0.336554     -0.087548
Ti	      4.29221      8.36421      4.13018         0.432535     -0.491470     -0.119488
Cr	      0.01757      0.00901      0.02253        -0.005622      0.040798      0.279640
Cr	      6.34191      6.34718      4.21501        -0.065353     -0.045612     -0.034615
Cr	      4.19919      4.19299      8.22759        -0.023642     -0.021689     -0.098494
Fe	      8.48664      4.36160      8.27350        -0.160865      0.262409      0.020910
Ni	      6.32791      8.48835     10.34160        -0.093201      0.080713      0.021975
Ni	      6.36828      6.39773      8.17351        -0.082401      0.029757     -0.018240
O	      2.10088      2.15171      2.05243         0.073200      0.133620     -0.416808
O	      4.20312      4.26032      1.97550         0.336938     -0.198105     -0.085919
O	      4.18508      1.99556      4.13735        -0.065048     -0.253720     -0.004474
O	      6.46126      4.28465      4.14316         0.238255      0.068668     -0.028180
O	      6.48612      2.05477      6.12989         0.137966      0.009282      0.157625
O	      8.53738      4.10542      6.10763         0.061418     -0.053122     -0.152014
O	      1.97419      4.15474      4.18394        -0.120091      0.044421      0.150786
O	      4.30701      6.48239      4.15273        -0.012247      0.359555      0.000796
O	      4.22342      4.24227      6.29699         0.026546     -0.023236      0.042647
O	      6.33568      6.34479      6.13677         0.027796     -0.011924     -0.035461
O	      6.28482      4.29397      8.40603        -0.292324     -0.056295      0.147108
O	      8.41855      6.41862      8.31331         0.026403     -0.098690     -0.012686
O	      2.05104      6.49724      6.20726        -0.007030      0.264339      0.016822
O	      4.08889      8.55182      6.12696        -0.052258     -0.005315     -0.100091
O	      4.28950      6.25843      8.41068        -0.123068     -0.013030      0.194139
O	      6.41866      8.43099      8.35437         0.075170      0.109228     -0.141896
O	      6.24576      6.30793     10.41492        -0.003037     -0.112383     -0.024843
O	      8.51461      8.55159     10.36645         0.087734     -0.019250      0.051042
