# total energy = -244.67286904 eV
 
CRYSTAL
PRIMVEC
-0.021174 6.309800 6.390944 
6.379493 -0.042370 6.412009 
4.232162 4.199757 -0.007217 
PRIMCOORD
36 1
Li	      8.33058      4.20114      4.22629        -0.033361      0.002765     -0.015564
Li	     10.54377      6.29588      8.59337        -0.034502     -0.013459      0.021504
Li	      6.32163      6.14264      4.48828         0.008907      0.023390     -0.047300
Li	      4.32197      4.28269      4.46999        -0.023169      0.017722     -0.020124
Li	      4.08166      2.24169      6.36855        -0.028017      0.009561     -0.078654
Li	      6.14653      4.36680      6.36943         0.054696     -0.097754      0.005734
Li	      4.43056      6.09659      6.33688        -0.088545      0.104900     -0.024620
Li	      4.31754      4.18662      8.31846         0.005875     -0.026910      0.010070
Li	      6.35164      6.22255      8.28615         0.032879      0.024874     -0.011898
Ti	      6.31879      0.03016      6.38301        -0.066861      0.118291     -0.044733
Ti	      4.28122      8.29595      8.66672         0.183684     -0.193978      0.358676
Ti	      8.33864      4.25543      8.61379        -0.233009      0.200570      0.114108
Cr	      2.12299      8.41598      6.39281        -0.041158     -0.030275     -0.050823
Cr	      2.17287      6.28876      4.26575         0.030363     -0.033949     -0.005564
Cr	      6.34525      4.21306      2.17481         0.004443     -0.001393      0.004278
Fe	      6.34690      2.14799      4.30202         0.039525     -0.048026     -0.023300
Fe	      4.24032      8.31936      4.22498        -0.051680      0.092832      0.050688
Co	      2.28250      4.03436      6.37358         0.032055      0.026281      0.073328
O	      2.23838      2.11202      2.03727         0.015017      0.034084     -0.022315
O	      4.26961      4.11351      1.99226        -0.047908     -0.004808     -0.076624
O	      4.26367      2.07217      4.11307        -0.133442     -0.075352     -0.361347
O	      6.33400      4.18092      4.11087         0.014475      0.109762     -0.000057
O	      6.50043      1.92390      6.46063         0.049356     -0.188211      0.037802
O	      8.62812      4.09822      6.53022         0.125783     -0.021835      0.032175
O	      2.17892      4.25535      4.10951        -0.005237     -0.001894     -0.237885
O	      4.11451      6.35405      4.24672         0.003002     -0.186011      0.030899
O	      4.22278      4.16917      6.41902        -0.243715     -0.104558     -0.057136
O	      6.35703      6.30366      6.38801         0.127404      0.344718     -0.026983
O	      6.51672      4.15164      8.48915         0.300305      0.038106     -0.032375
O	      8.48556      6.12962      8.65349        -0.030356     -0.242707      0.035980
O	      2.00088      6.36625      6.40265        -0.007721     -0.108133      0.013300
O	      4.15605      8.53488      6.46320         0.028566      0.024176      0.088394
O	      4.11355      6.42354      8.52310         0.029975      0.178552      0.018077
O	      6.20936      8.51452      8.49594        -0.154393     -0.072812     -0.008511
O	      6.45018      6.20019     10.83332         0.026672      0.071390      0.181324
O	      8.43081      8.25819     10.80542         0.110092      0.030094      0.069472
