# total energy = -243.67108958 eV
 
CRYSTAL
PRIMVEC
0.037032 6.240462 6.428990 
6.243712 0.037399 6.428993 
4.172939 4.170431 0.014298 
PRIMCOORD
36 1
Li	      8.40563      8.36403     12.70524        -0.001612     -0.002147     -0.020985
Li	      4.24559      8.29514      8.51800        -0.030309      0.013436     -0.013658
Li	      8.45529     10.36085     10.74509         0.032830      0.075432      0.090845
Li	      6.34545      8.28574     10.76160        -0.054928     -0.008813      0.075166
Li	      6.29660      6.24418      4.31588         0.029865     -0.011512     -0.038436
Li	      6.27753      4.14315      6.31237        -0.003640     -0.055587     -0.036850
Li	     10.36327      8.45783     10.85062         0.034354     -0.022831     -0.013411
Li	      6.20937      8.34622      6.49523        -0.034082     -0.007365      0.001825
Li	      6.23632      6.35181      8.67796         0.010979      0.018151      0.012962
Ti	      6.39706     10.28439      8.65879        -0.054022     -0.263700      0.070038
Ti	      8.19098      4.10667      8.61100        -0.278254     -0.017200      0.120744
Ti	      8.21547      6.27409      6.36235        -0.091431     -0.037824     -0.137434
Cr	      0.06527      6.19686      6.39003         0.061135     -0.073428     -0.040854
Cr	      4.23164      6.33656      6.39810        -0.012505      0.066031     -0.065458
Cr	      4.18727      4.16046      4.28568         0.015958     -0.002938     -0.087127
Fe	      6.27896      2.14915      8.56241        -0.114969      0.029373      0.029213
Fe	      8.36623      8.37213      8.73484         0.111692     -0.198128     -0.160989
Cu	      8.29518      6.33865     10.73777         0.051756      0.044695     -0.007708
O	      2.12986      2.17585      2.17919         0.025426      0.183722      0.047693
O	      4.20686      4.14303      2.18211         0.007765     -0.015649      0.018293
O	      4.16762      2.16075      4.44920        -0.026973      0.026895      0.251324
O	      6.19816      4.21728      4.13713        -0.030356     -0.039195     -0.171785
O	      6.11658      2.01566      6.49930        -0.069431      0.038424     -0.140032
O	      8.39536      4.26068      6.51911         0.009068      0.093331      0.070536
O	      2.18146      4.25792      4.09951         0.049884     -0.129517     -0.209004
O	      4.12179      6.17838      4.35537         0.107564     -0.035636      0.073471
O	      4.18838      4.17844      6.33725        -0.031277     -0.033603     -0.031131
O	      6.28478      6.26955      6.38989         0.157352     -0.001908     -0.042722
O	      6.34743      4.23739      8.56757         0.388823      0.056972      0.033233
O	      8.30845      6.19124      8.36868        -0.042200     -0.042609     -0.261008
O	      2.12509      6.29057      6.64506         0.040543     -0.023381      0.308225
O	      4.23216      8.32197      6.42636        -0.001424     -0.032726     -0.004379
O	      4.14736      6.30048      8.44563        -0.195540     -0.007001      0.011447
O	      6.26627      8.44103      8.58913         0.052356      0.352141      0.006829
O	      6.33980      6.27936     10.88591        -0.096378     -0.011434      0.003433
O	      8.37665      8.30406     10.68241        -0.018022      0.075528      0.257694
