# total energy = -246.01509717 eV
 
CRYSTAL
PRIMVEC
-0.021893 6.373157 6.210152 
6.376641 -0.028451 6.216861 
4.233762 4.235760 -0.001668 
PRIMCOORD
36 1
Li	      4.16835      0.09502      4.15536        -0.013966      0.071203      0.027324
Li	      6.25562      2.17703      4.19058        -0.074916      0.001417      0.052381
Li	      6.43859      6.19552      4.17903         0.057611     -0.061203      0.057735
Li	      4.39038      4.14636      4.18444         0.054853     -0.051797      0.025143
Li	      4.29252      2.10450      6.05948         0.092533     -0.071579      0.101446
Li	      6.30906      4.22545      6.04174        -0.041869      0.013045     -0.022184
Li	     10.54005      8.45126     10.33623        -0.014921      0.003780     -0.019790
Li	      8.47793      6.39850     10.30754        -0.017710      0.027647     -0.036617
Li	      8.47855      8.48406      8.35391        -0.036207      0.087842      0.047505
Ti	      8.40092      8.52410     12.26136        -0.197377      0.155020     -0.484134
Ti	      2.03719      4.31314      2.21253        -0.272375      0.267616      0.082913
Ti	      2.23391      4.15271      6.13045         0.305231     -0.268981     -0.017979
Cr	      6.35617      6.32683     12.33521        -0.018385      0.053596     -0.064814
Cr	      6.37981      4.23167      2.16009         0.006731     -0.039316      0.054267
Cr	      4.20910      6.37619      6.13210         0.037757      0.002425     -0.031109
Fe	      4.24340      2.10248      2.31781         0.021882     -0.018671     -0.156107
Fe	      4.21423      6.37243      2.24300        -0.067352      0.059623     -0.106978
Fe	      6.31841      6.34746      8.45780        -0.035953      0.003062     -0.113879
O	      2.12609      2.10871      1.98015         0.042731      0.028708     -0.029587
O	      4.23051      4.23307      1.96038         0.009744     -0.051700     -0.025870
O	      4.24375      2.10517      4.21037        -0.020677      0.016922      0.223072
O	      6.37386      4.21110      4.06684         0.003325     -0.023123      0.052677
O	      6.52109      1.97424      6.25772         0.203148      0.017532     -0.082820
O	      8.60561      4.06217      6.30976         0.002004     -0.193144      0.020609
O	      2.09973      4.25462      4.13749        -0.009618     -0.007023     -0.068444
O	      4.20232      6.38753      4.19775        -0.031906      0.050868      0.241176
O	      4.08637      4.34507      6.18364        -0.286527      0.000934     -0.009349
O	      6.22497      6.51756      6.27015         0.012356      0.240459     -0.086125
O	      6.53689      4.21691      8.22235         0.297969     -0.038497     -0.001988
O	      8.47412      6.15886      8.23400         0.027412     -0.303117      0.006232
O	      2.09266      6.37542      6.23965         0.028166     -0.006510     -0.023846
O	      4.21080      8.48710      6.20381        -0.027208     -0.008029      0.005234
O	      4.13062      6.33727      8.16112        -0.074454      0.003409     -0.049366
O	      6.34601      8.58634      8.08704         0.026996      0.054147     -0.145197
O	      6.36621      6.33302     10.40422         0.038877     -0.010602      0.194598
O	      8.49278      8.44577     10.47701        -0.027904     -0.005965      0.383872
