# total energy = -236.95151905 eV
 
CRYSTAL
PRIMVEC
0.009392 6.237390 6.308301 
6.255906 0.006059 6.311622 
4.170268 4.160159 0.004376 
PRIMCOORD
36 1
Li	      6.27753     10.27756      8.40983        -0.002015     -0.051187      0.005915
Li	      6.26298      8.31938     10.42615         0.004102     -0.016017     -0.094120
Li	      6.20481      6.29375      4.30065        -0.054116      0.063560      0.100394
Li	      4.16155      4.20979      4.21577        -0.021315      0.041487      0.013594
Li	      6.20373      4.20804      6.28683        -0.032436      0.056583     -0.018461
Li	      0.09500      4.15905      4.24624         0.031154     -0.007330      0.037571
Li	      2.08010      4.17510      6.29924        -0.001790      0.009132     -0.012205
Li	      4.19839      6.20189      6.29156        -0.024410     -0.011000     -0.013650
Li	      4.08456      4.21725      8.35043        -0.102335      0.065184     -0.104432
Ti	      8.21652      4.07979      4.18125        -0.428555     -0.088029     -0.207956
Ti	      0.05787      2.17660      2.18077         0.047492      0.280929      0.281669
Ti	      4.09842      2.23649      6.22387        -0.281808      0.647725     -0.057178
Cr	      2.09276      8.30087      6.30905         0.039657     -0.096779     -0.028490
Cr	      4.22006      2.11702      2.13203         0.012275     -0.057633      0.006833
Cr	      2.05514      6.19955      4.20682         0.038140      0.027657      0.044527
Ni	      0.04583      6.20483      6.29307         0.072062     -0.083456     -0.027972
Ni	      2.10923      4.15793      2.16928        -0.046365     -0.015081     -0.036889
Ni	      6.24964      6.26124      8.41689         0.008110     -0.106646     -0.040636
O	      2.04521      2.08745      2.04345        -0.049850     -0.142499      0.008642
O	      4.16264      4.16414      2.07936         0.128342      0.056667      0.130805
O	      4.19278      1.99170      4.28218         0.002070     -0.025683      0.058032
O	      6.42044      4.15685      4.21227         0.378674     -0.021508      0.038811
O	      6.23280      2.04006      6.44241         0.004784      0.129696     -0.004201
O	      8.39143      4.15030      6.24226        -0.136059      0.008340     -0.031519
O	      2.07857      4.25556      4.17555         0.037513     -0.036790      0.122123
O	      4.10288      6.22520      4.06546         0.074462      0.066359     -0.217847
O	      4.20424      4.04126      6.28936        -0.012791     -0.517883     -0.014936
O	      6.41807      6.21389      6.36691         0.302779      0.023633     -0.160972
O	      6.28925      4.05675      8.39865        -0.079307     -0.292555     -0.016753
O	      8.42129      6.22424      8.37409         0.134588      0.166841     -0.004745
O	      2.08217      6.33321      6.17846         0.147723     -0.032522      0.071789
O	      4.06418      8.32254      6.46077         0.016930     -0.178620     -0.034273
O	      4.21264      6.30799      8.54672        -0.183716     -0.078892      0.150059
O	      6.16043      8.29315      8.40500         0.028356      0.128615      0.011924
O	      6.28421      6.22681     10.50006        -0.046340      0.025226      0.032296
O	      8.34915      8.35669     10.60160        -0.006004      0.062474      0.012250
