# total energy = -237.29217696 eV
 
CRYSTAL
PRIMVEC
0.018869 6.349442 6.201631 
6.316750 0.015495 6.205272 
4.236043 4.260256 -0.014387 
PRIMCOORD
36 1
Li	     10.46304      4.40097      6.30338         0.016944     -0.105472     -0.011488
Li	      8.35492      2.21596      6.30375         0.082711      0.035968     -0.064207
Li	      2.10066      0.13475      2.04032         0.108846      0.033661     -0.076678
Li	      8.34045      4.30754      4.24912        -0.003040      0.003018     -0.044771
Li	      0.19568      2.09506      1.88524         0.043851      0.044070      0.111734
Li	      2.17888      2.08001      4.02028         0.025189      0.047898      0.051125
Li	      8.52068      6.26835      6.24538        -0.074598      0.045901      0.041846
Li	      6.35973      8.48880      6.27058         0.001768      0.045176      0.000943
Li	      8.40582      8.45397      8.21829        -0.029334     -0.010959     -0.024797
Ti	      4.29012      4.17005      4.03136        -0.171241     -0.068803     -0.138181
Ti	      8.46355      6.39726     10.33146        -0.012394      0.131666      0.054573
Ti	      4.23447      6.39132      6.29818        -0.243866      0.263657      0.140336
Mn	     10.54523      8.50960     10.30837         0.042396      0.041679      0.067086
Cr	      6.33648      2.14612      4.16513         0.142671     -0.217159     -0.156335
Cr	      6.31414      6.37189      8.25385         0.068874      0.072439      0.088815
Co	      6.36552      4.19067      6.24413        -0.393684      0.279569     -0.022041
Cu	      8.47132      4.19640      8.16871        -0.030018      0.037872     -0.046346
Ni	      4.20611      2.18434      2.00364         0.097246     -0.042920     -0.086144
O	      2.20874      2.22858      2.06331        -0.183083     -0.164575      0.035321
O	      4.37122      4.28143      2.16120         0.117291      0.133123      0.200191
O	      4.28911      2.26399      4.12966        -0.012077      0.133026      0.119847
O	      6.25674      4.17565      4.13457         0.091210      0.108775      0.572970
O	      6.29571      2.15155      6.13332         0.108323      0.882905      0.110456
O	      8.29537      4.28176      6.22344        -0.351300     -0.146887     -0.077370
O	      2.22818      4.34819      4.10494         0.259156      0.026139      0.086835
O	      4.14748      6.32074      4.14677        -0.074989     -0.293423      0.007018
O	      4.30999      4.39755      6.09103         0.311392     -0.111466     -0.021838
O	      6.20799      6.35767      6.25601         0.229231     -0.791463     -0.097194
O	      6.19476      4.36126      8.34914        -0.080662     -0.137264     -1.154584
O	      8.32443      6.28404      8.36275        -0.006485      0.067437      0.039295
O	      2.27161      6.30732      6.08121         0.079517     -0.006088     -0.038820
O	      4.27508      8.34416      6.10614         0.052719     -0.347133      0.411998
O	      4.25947      6.41184      8.19439        -0.017467     -0.138183     -0.161981
O	      6.30884      8.36076      8.33581         0.088848      0.060191      0.055617
O	      6.42686      6.41108     10.32246         0.008114      0.220296     -0.009177
O	      8.40248      8.33586     10.31201        -0.292056     -0.132672      0.035947
