# total energy = -236.56882287 eV
 
CRYSTAL
PRIMVEC
0.016897 6.206150 6.244355 
6.369773 0.003153 6.258055 
4.242828 4.142769 0.005878 
PRIMCOORD
36 1
Li	      6.33162      4.09108      2.16550        -0.029556     -0.021336      0.020323
Li	      4.29281      2.11204      2.18361         0.048124      0.006056     -0.065449
Li	      6.33995      8.31674     10.30872        -0.003813      0.002591     -0.096577
Li	      2.12678      4.15193      2.28194         0.044506     -0.018666      0.071036
Li	      2.12072      2.19728      4.12446        -0.036899     -0.023037     -0.052842
Li	      4.14864      4.09659      4.18354        -0.014891      0.004882     -0.004667
Li	      4.20703      2.16951      6.23605         0.014323     -0.027697     -0.036571
Li	      0.13902      4.09018      4.11646         0.062419     -0.034831      0.053534
Li	      8.46094      8.24112      8.31851        -0.016519      0.013428     -0.018472
Ti	      4.20925      4.14473      0.04206        -0.029134     -0.090864      0.248933
Ti	      2.19929      8.23574      6.26871         0.176058     -0.085173      0.110297
Ti	      4.14687      0.11890      4.02166        -0.183908      0.247491     -0.259032
Mn	      6.47138      6.21438      8.35071        -0.045205     -0.038012     -0.003123
Cr	      4.21580      6.25501      2.16978         0.031806     -0.084293     -0.005352
Cr	      6.32470      4.16013      6.23153        -0.041262      0.080331     -0.018860
Co	      4.27555      6.17754      6.18562         0.153051     -0.126210      0.249473
Ni	      2.16774      6.15167      4.12118        -0.035707      0.072200      0.066091
Ni	      2.27563      4.04822      6.20182        -0.073586      0.115978      0.089593
O	      1.99958      2.08624      1.92907        -0.025870      0.006495     -0.106196
O	      4.23874      4.23131      1.92169        -0.017432     -0.025655     -0.160101
O	      4.26016      1.93948      4.17062        -0.004464     -0.298925     -0.044318
O	      6.50211      4.11653      4.23452         0.188747      0.019601     -0.065648
O	      6.43796      2.05501      6.33400        -0.015602     -0.027475      0.005963
O	      8.54788      4.06926      6.18141        -0.000559     -0.029721     -0.045541
O	      2.12846      4.15554      4.26042         0.008771     -0.046973     -0.157683
O	      4.21211      6.24465      4.14129         0.156017     -0.019250      0.300587
O	      4.35957      4.17993      6.21969         0.058218      0.438836     -0.083119
O	      6.37750      6.13773      6.32051         0.075834     -0.087031     -0.023855
O	      6.39421      4.19534      8.24063         0.021247     -0.041266      0.015579
O	      8.57733      6.21651      8.37297         0.019950      0.016091     -0.217221
O	      1.99681      6.24670      6.22018        -0.160368      0.127988      0.136220
O	      4.14835      8.37703      6.32197        -0.125825     -0.138507     -0.109267
O	      4.25262      6.19188      8.39805        -0.073907     -0.074381     -0.086009
O	      6.40932      8.08781      8.23164        -0.009181      0.096965      0.219798
O	      6.31051      6.21849     10.51291        -0.099387     -0.024632     -0.039128
O	      8.47642      8.32810     10.60431        -0.015997      0.115003      0.111605
