# total energy = -240.49067569 eV
 
CRYSTAL
PRIMVEC
0.022793 6.280967 6.506929 
6.270449 0.006599 6.523716 
4.166886 4.184865 0.017850 
PRIMCOORD
36 1
Li	      4.19160      6.27043     10.73573        -0.026528     -0.004541     -0.049447
Li	      6.32220      8.39065     10.77641        -0.031946      0.032027     -0.063157
Li	      6.25636      2.15242      8.67652         0.003075      0.020548     -0.030343
Li	      4.20447      4.16587      4.54728         0.044877     -0.046469      0.010887
Li	      4.17447      2.32250      6.51828        -0.018830     -0.034075     -0.064343
Li	      6.12260      4.16244      6.58386         0.018659      0.053515     -0.010755
Li	      6.43495      8.31751      6.72448        -0.035769     -0.036402      0.091295
Li	      4.14539      4.15976      8.54609         0.017434      0.044442     -0.008183
Li	      6.27103      6.38896      8.64493        -0.083070      0.036462     -0.038327
Ti	      6.26733      0.08400      6.46553        -0.213751     -0.015999      0.079441
Ti	      8.25768      4.39416      8.70687        -0.151212      0.079620     -0.137071
Ti	      6.37047      6.20988      4.44314         0.482870     -0.266321      0.255847
Mn	      8.36223      8.38858     13.00713        -0.007484      0.078025     -0.032852
Cr	      6.23756      4.12994      2.24991         0.153496     -0.200060      0.080569
Cr	      4.17924      6.19852      6.52556         0.172158     -0.032692      0.278134
Co	      4.23824      8.32217      8.77278         0.124712      0.042808      0.090887
Co	      6.24725      4.18462     10.76343        -0.060367     -0.024480     -0.039377
Cu	      8.41135      6.29619     10.80151         0.096610      0.218374     -0.041830
O	      2.08482      2.05839      2.20416        -0.219132      0.107149     -0.011223
O	      4.16177      4.13432      2.03103        -0.185070      0.146972     -0.181514
O	      4.05866      2.09460      4.37449        -0.400573     -0.058521      0.125118
O	      6.26821      4.31251      4.24767        -0.037052      0.247122      0.062504
O	      6.39645      1.97565      6.50755         0.152353     -0.139722     -0.007350
O	      8.50738      4.19180      6.66330         0.255786     -0.013360      0.149140
O	      2.12210      4.12207      4.12412         0.022335      0.127248     -0.163570
O	      4.21308      6.31106      4.47274        -0.242829     -0.073480     -0.036062
O	      4.19728      4.27427      6.52408        -0.047849      0.097419     -0.030846
O	      6.17841      6.32819      6.33274        -0.028994     -0.038517     -0.237435
O	      6.40816      4.20517      8.65062         0.365211      0.022585      0.049729
O	      8.36871      6.20580      8.59759         0.007948     -0.294630      0.071535
O	      2.05960      6.20706      6.72616        -0.104961      0.105708     -0.100196
O	      4.02719      8.35322      6.53265        -0.049441     -0.003415     -0.132734
O	      4.11716      6.28872      8.59393        -0.122784     -0.122987     -0.196744
O	      6.23401      8.43360      8.76552         0.120666      0.060802      0.024915
O	      6.37681      6.19968     11.06633         0.111924      0.094840      0.165931
O	      8.39188      8.29250     11.02010        -0.082474     -0.209994      0.077424
