# total energy = -240.28870800 eV
 
CRYSTAL
PRIMVEC
0.011528 6.360328 6.359157 
6.383059 -0.018241 6.388671 
4.242485 4.247124 0.000813 
PRIMCOORD
36 1
Li	      4.28054     10.38100      6.43969        -0.021784      0.102335     -0.034720
Li	      2.39336      8.44065      6.44333        -0.088495      0.004096     -0.024593
Li	      4.14602      8.60140      8.22099        -0.018307      0.007418      0.026317
Li	      4.31106      6.28005      2.26994         0.011454      0.047863      0.091701
Li	      2.28940      4.13900      2.17694         0.025996     -0.027751      0.013993
Li	      4.16402      4.32288      4.14143        -0.020780      0.013883      0.009993
Li	      4.34999      8.38920      4.47319         0.064264     -0.043646     -0.067442
Li	      6.14351      8.55769      6.28869         0.025570      0.050972     -0.006918
Li	      4.16485      6.62129      6.28451        -0.022571      0.018587     -0.007745
Ti	      6.40441      2.16458      4.24639         0.135373     -0.006259      0.181130
Ti	      8.51280      6.33310      6.38135         0.185744     -0.070131      0.001996
Ti	      6.28056      6.31016      8.49774        -0.238457     -0.277097      0.146304
Mn	      6.40142      4.20339      6.39458         0.043575     -0.090396      0.025595
Cr	      2.04864      2.23018      4.20050         0.042226      0.004105     -0.078551
Cr	      8.47309      8.45544      8.49512         0.087512      0.054612      0.019260
Co	      1.86675      0.17046      1.90669         0.009164      0.074264     -0.286768
Co	      8.55855     10.57225     10.66892         0.016160     -0.050538      0.014564
Co	      2.29145      6.20281      4.40351         0.085399     -0.070299      0.078694
O	      2.11507      2.08360      2.23736         0.014100     -0.045963      0.061491
O	      4.34458      4.24320      2.12919         0.058502      0.019004      0.003856
O	      4.28341      2.11700      4.38149        -0.005749     -0.027904      0.093058
O	      6.42780      4.16438      4.16851        -0.016154     -0.039108     -0.012460
O	      6.26271      2.07143      6.17785        -0.150243      0.004092     -0.237113
O	      8.49391      4.38759      6.38660         0.038241      0.197958     -0.030980
O	      2.15631      4.18663      4.20390         0.024204     -0.116038      0.023342
O	      4.33588      6.33869      4.25890        -0.017421     -0.000730      0.024126
O	      4.30309      4.03796      6.52497        -0.035063     -0.176488     -0.011316
O	      6.49252      6.39207      6.42902         0.066716      0.003466      0.029758
O	      6.25793      4.39944      8.52663        -0.062152      0.244130      0.037033
O	      8.40188      6.41717      8.41807        -0.096321     -0.003059     -0.080160
O	      2.18524      6.34886      6.42409        -0.065228      0.043166      0.229961
O	      4.24094      8.51309      6.35385         0.008491      0.010780     -0.041702
O	      4.36343      6.24854      8.52813         0.226620     -0.037893     -0.007739
O	      6.43250      8.36647      8.59793        -0.029714     -0.051073      0.045256
O	      6.40754      6.50276     10.45465        -0.041009      0.111794     -0.176912
O	      8.35071      8.44424     10.53608        -0.239865      0.121847     -0.052311
