# total energy = -239.79080820 eV
 
CRYSTAL
PRIMVEC
0.005407 6.328680 6.279151 
6.284142 0.001383 6.283516 
4.189726 4.222203 0.000654 
PRIMCOORD
36 1
Li	      8.28383      4.21980      4.26340         0.010438      0.002918      0.048841
Li	      6.28665      2.23912      4.28565        -0.016426      0.043555      0.031955
Li	      6.25490      6.24645      4.40048         0.002710      0.011307     -0.037398
Li	      4.26356      4.26992      4.31973        -0.003188      0.015768      0.028785
Li	      8.29307      6.31440      6.17963         0.026213     -0.031936     -0.024946
Li	      6.27509      4.34670      6.07432         0.020506      0.020382      0.036168
Li	      2.11209      6.27903      4.22255         0.037915     -0.023122     -0.002638
Li	      2.17725      4.12472      6.17987         0.019634     -0.015000     -0.054409
Li	      4.31355      6.23156      6.20246        -0.022385      0.002060      0.003357
Ti	      4.15639      2.09914      2.31950        -0.083441      0.047678      0.918809
Ti	      4.27228      8.40245      4.27854         0.259883     -0.037614      0.049462
Ti	      8.39672      8.33655      8.28589         0.074204     -0.311514     -0.414707
Mn	      6.28649      6.39934     12.49059        -0.054889      0.046493     -0.063400
Cr	      6.28165      4.21115      2.18215        -0.019315      0.073182     -0.019049
Cr	      6.26591      6.33573      8.30370         0.016038      0.023176     -0.078402
Fe	      8.36393      8.46279     12.43452        -0.014803     -0.008968     -0.064376
Co	      4.20104      6.32497      2.10608        -0.173420      0.064396     -0.069114
Ni	      8.38611      4.24729      8.37312         0.002614     -0.001136     -0.029488
O	      2.20125      2.04500      2.11083         0.035910     -0.063233      0.086508
O	      4.23348      4.07476      2.16779         0.119610      0.103045      0.037123
O	      4.20555      2.08077      4.09376        -0.019757      0.015594     -0.810329
O	      6.28787      4.21163      4.10268        -0.013081      0.014351     -0.016594
O	      6.24181      1.99115      6.37428         0.000676     -0.014197      0.533878
O	      8.50912      4.16542      6.36676         0.074482      0.094735     -0.146276
O	      1.96568      4.22687      4.08102        -0.276970      0.012341      0.184485
O	      4.15648      6.48299      4.11196         0.035669      0.107684     -0.305416
O	      4.17999      4.26251      6.46142         0.000383     -0.026647      0.382255
O	      6.28942      6.33917      6.38293        -0.040919      0.026873      0.037215
O	      6.22531      4.29962      8.39338        -0.146718     -0.186061      0.038843
O	      8.31524      6.41110      8.36425         0.062772      0.222968     -0.034167
O	      1.96302      6.41946      6.38568        -0.032419     -0.154446     -0.011824
O	      4.25035      8.56321      6.20674         0.033352     -0.018557     -0.111388
O	      4.17682      6.40719      8.32668         0.035646      0.044732      0.015111
O	      6.27924      8.43704      8.39588        -0.012219     -0.026381     -0.007836
O	      6.27091      6.19255     10.34817         0.012283     -0.079643     -0.008073
O	      8.47382      8.46605     10.28589         0.049012      0.005217     -0.122965
