# total energy = -244.73583177 eV
 
CRYSTAL
PRIMVEC
0.001945 6.259569 6.311743 
6.310700 -0.011581 6.325195 
4.205851 4.180724 -0.006387 
PRIMCOORD
36 1
Li	     10.47671      4.16234      6.28880        -0.018339      0.034780     -0.008158
Li	      6.33225      4.18067      2.15897        -0.002947     -0.000198     -0.007734
Li	      4.20232      2.07781      2.15854         0.025392     -0.002496      0.011057
Li	      8.39309      4.18730      4.21369         0.045167     -0.001044     -0.020853
Li	      2.17123      2.02935      4.19037         0.049922     -0.006503     -0.022408
Li	      4.21668      4.13611      4.20802        -0.013652     -0.038743     -0.032347
Li	      6.31807      4.17264      6.26319        -0.018836     -0.017646     -0.038856
Li	      8.36783      6.25414     10.53765        -0.054675      0.008182      0.051054
Li	      8.41195      8.37295      8.44662         0.002291      0.006907      0.006930
Ti	      6.35556      2.19480      4.15470         0.115666      0.119169     -0.100565
Ti	      4.24317      6.21265      2.21400         0.146177     -0.318615      0.172347
Ti	      4.15361      6.19838      6.38309        -0.038785      0.016078      0.172858
Mn	      2.07143      4.21659      6.22931        -0.094600     -0.084364      0.009793
Cr	      2.10226      4.17532      2.12407         0.147493     -0.058110      0.206199
Cr	      6.30562      6.23497      8.45172        -0.038635      0.076382      0.175029
Fe	      4.21518      2.02104      6.23249        -0.007024      0.248879     -0.034951
Co	      8.42622      2.13709      6.28437        -0.130675      0.035883     -0.009945
Co	      6.27913      4.21470     10.54221        -0.066494      0.045453      0.081687
O	      1.95462      2.14116      2.08393        -0.126440      0.031904      0.052938
O	      4.13681      4.33334      2.11008        -0.028776      0.301589     -0.002927
O	      4.32766      2.06971      4.30661         0.006504      0.020944     -0.076987
O	      6.34053      4.02033      4.16583        -0.004744     -0.135702     -0.022718
O	      6.24406      2.09405      6.36264         0.027405      0.021318      0.001087
O	      8.41645      4.24576      6.42269        -0.022874     -0.262138     -0.003565
O	      2.04022      4.16375      4.11195         0.046238      0.008893     -0.154858
O	      4.19822      6.28002      4.12938        -0.025288     -0.071352     -0.137518
O	      4.21925      4.24897      6.29706         0.090859      0.046542     -0.006944
O	      6.31064      6.23858      6.39142         0.006870     -0.017903     -0.000638
O	      6.37840      4.15282      8.41803        -0.080355      0.006498     -0.003841
O	      8.42758      6.21348      8.35182         0.023358      0.020561     -0.006584
O	      2.27929      6.29683      6.34658         0.067661      0.077739      0.028580
O	      4.17849      8.23020      6.32856         0.036136     -0.111068     -0.032555
O	      4.31753      6.23584      8.27866        -0.026705     -0.036577     -0.212741
O	      6.30723      8.24720      8.54355         0.031125     -0.015803      0.074959
O	      6.30080      6.29497     10.44594         0.007804      0.067736     -0.097534
O	      8.32064      8.33105     10.56015        -0.076223     -0.017174     -0.009291
