# total energy = -239.02736059 eV
 
CRYSTAL
PRIMVEC
-0.019147 6.294752 6.444856 
6.222523 0.028583 6.397883 
4.156200 4.172671 0.011225 
PRIMCOORD
36 1
Li	      2.02513      2.14204      0.13015         0.011170      0.014679      0.020960
Li	      6.20317      4.20965      2.30745         0.047697     -0.008015      0.008481
Li	      8.11628      4.17849      4.32488         0.019812     -0.024360      0.100591
Li	      6.24399      2.25323      4.18267        -0.007742     -0.044326     -0.009533
Li	      0.17527      2.10946      2.06385         0.101491      0.059102      0.006258
Li	      2.09032      4.05645      2.14101         0.007674      0.007455     -0.036499
Li	      6.26423      4.16939      6.34270         0.002444     -0.021326      0.025475
Li	      6.22540      8.35844      6.50795        -0.017111      0.015190      0.007299
Li	      8.19537      8.39002      8.59513        -0.034768      0.049392     -0.020808
Ti	      8.40845      6.19748      6.48898         0.304045     -0.221948     -0.029786
Ti	      6.17049      4.23596     10.56405        -0.279252      0.196330     -0.125275
Ti	      4.09993      6.26089      6.53368        -0.127693      0.093373      0.275411
Mn	      4.22135      4.11023      0.17803         0.091165     -0.107136     -0.053128
Cr	      4.19525      4.18677      4.26100        -0.089512      0.041696      0.052292
Cr	      6.18469      6.35082      8.53975        -0.066644     -0.133487      0.050192
Fe	      8.28835      6.31999     10.62296        -0.068089      0.073727     -0.095909
Cu	      4.13222      2.12549      2.16728         0.094754     -0.049712     -0.121010
Ni	      2.11024      2.06130      4.16288        -0.016172      0.065999      0.149464
O	      2.19056      2.09196      2.15540        -0.105456     -0.047844     -0.045617
O	      4.17295      4.13063      2.27495         0.029855      0.054716      0.150893
O	      4.08848      2.22465      4.53468         0.148160     -0.032125      0.218591
O	      6.15220      4.22573      4.30095        -0.007651     -0.045995      0.044206
O	      6.10093      2.12755      6.49225        -0.257990      0.068845     -0.022036
O	      8.31102      4.34575      6.41422        -0.100801      0.284686      0.028186
O	      2.05590      4.26200      4.25223         0.027777      0.002962     -0.045339
O	      4.14607      6.29232      4.29653        -0.085389     -0.061335      0.005540
O	      4.13452      4.29936      6.33675         0.014145      0.076110     -0.065629
O	      6.16934      6.29874      6.52233        -0.027300     -0.034881     -0.065774
O	      6.22056      4.26539      8.69999         0.020517      0.079786      0.159377
O	      8.18546      6.37347      8.50468        -0.012990     -0.039346      0.012597
O	      2.18055      6.28617      6.26969         0.197271     -0.003645     -0.016660
O	      4.17157      8.23803      6.20022         0.012921     -0.204940     -0.271578
O	      4.14748      6.28808      8.41238        -0.024286     -0.094050     -0.184606
O	      6.08428      8.28803      8.58918         0.021326      0.081002      0.033254
O	      6.27017      6.20885     10.62598        -0.016814     -0.124382     -0.102801
O	      8.40942      8.31145     10.65896         0.193437      0.033802     -0.037079
