# total energy = -46.56693241 eV
 
CRYSTAL
PRIMVEC
-0.000644 2.085485 2.087782 
2.072145 2.127208 -4.217939 
-4.170801 2.123355 -2.124402 
PRIMCOORD
8 1
Li	     -2.07656      4.19084     -2.08280        -0.057175     -0.124883      0.108749
Li	     -0.04449      2.21308     -2.21289        -0.047895      0.004897      0.001825
Mn	      0.00008      0.00157      0.00062        -0.136270      0.810654     -0.694010
Ni	     -2.10646      2.12728     -0.01801         0.282517      0.063245     -0.158682
O	     -2.12525      4.40416     -4.40861         0.044517     -0.316923      0.388699
O	     -2.23649      2.12828     -2.12537        -0.012879     -0.031633      0.121913
O	      0.11655      4.27486     -2.17076        -0.003647     -0.177446      0.124062
O	      0.00520      1.99859      0.11232        -0.069168     -0.227911      0.107444
