# total energy = -238.89958242 eV
 
CRYSTAL
PRIMVEC
0.044521 6.128903 6.319217 
6.413130 0.030245 6.333627 
4.272489 4.092907 0.022884 
PRIMCOORD
36 1
Li	      2.11523      2.00887      0.07653         0.021152     -0.038401     -0.053780
Li	      4.36420      8.22693      8.42240         0.042064      0.013453     -0.006106
Li	      6.42319      8.20155     10.48337         0.041321     -0.058609     -0.035966
Li	      6.46916      2.04039      8.36171        -0.027272      0.020662     -0.035345
Li	      2.18621      2.02175      4.19903        -0.002334      0.032318      0.008589
Li	      6.44575      4.07170      6.37628         0.040257     -0.029711      0.043444
Li	      6.43957      8.23153      6.47251         0.004477      0.067506      0.052629
Li	      8.45545      8.17903      8.47711        -0.069512     -0.028839      0.092755
Li	      6.46751      6.26967      8.41411         0.050417      0.091822      0.071091
Ti	      4.23668      6.17421     10.41548         0.074349     -0.292463     -0.034754
Ti	      4.28260      2.20855      6.39201        -0.024398     -0.018425      0.251914
Ti	      6.45493      4.04737     10.45250        -0.064291     -0.021148     -0.283716
Mn	      6.35284      4.11254      2.12515        -0.000154      0.003090     -0.120838
Cr	     10.72018     10.23870     12.66773         0.172842     -0.015023     -0.148346
Cr	      2.14457      4.01089      2.09041        -0.142479     -0.039599      0.062468
Fe	      4.51429      6.16718      6.40475        -0.063558     -0.112940      0.116511
Cu	      4.34098      4.05433      4.21814        -0.047905      0.045363     -0.022665
Cu	      8.58126      6.21044     10.52187         0.050736      0.217317      0.013386
O	      2.12345      1.99965      2.12083        -0.016781      0.092531     -0.009363
O	      4.15822      4.08314      1.99709        -0.058190     -0.030382      0.306535
O	      4.25027      1.93089      4.36142        -0.045897      0.196901     -0.127012
O	      6.59322      4.06561      4.20499         0.132937      0.094288     -0.043611
O	      6.20236      2.00930      6.30738        -0.023710      0.047627      0.000579
O	      8.61749      4.14122      6.34009        -0.068773     -0.086478     -0.092051
O	      2.03673      4.21747      4.08754        -0.117400     -0.414475      0.059040
O	      4.36402      6.20040      4.40164         0.138793     -0.187223     -0.039804
O	      4.33110      4.10232      6.40301        -0.000236     -0.022510     -0.127909
O	      6.48200      6.15446      6.37672         0.167605      0.022093     -0.004617
O	      6.53826      4.05477      8.57777        -0.063509     -0.045276      0.058640
O	      8.52528      6.07464      8.33987        -0.054774      0.152959     -0.438075
O	      2.10970      6.15430      6.37314        -0.124118      0.016365      0.360552
O	      4.34823      8.14700      6.21158        -0.002689      0.141135      0.117058
O	      4.36285      6.17834      8.50016         0.188602      0.038651      0.028690
O	      6.42041      8.37646      8.48126        -0.006540     -0.232986     -0.033991
O	      6.30170      6.07033     10.62401        -0.262717     -0.048076      0.011140
O	      8.70406      8.21372     10.52495         0.161684      0.428483      0.002926
