# total energy = -237.37597778 eV
 
CRYSTAL
PRIMVEC
-0.000414 6.227693 6.319562 
6.257949 0.008350 6.310634 
4.175719 4.149738 0.001488 
PRIMCOORD
36 1
Li	      6.27420      6.25543     12.45484         0.001617     -0.003072     -0.028262
Li	      8.30953      8.28963     12.44874        -0.020290     -0.002800      0.094079
Li	      6.37073      8.23719     10.62911        -0.001367      0.020457      0.032958
Li	      6.27722      6.21584      4.32413        -0.004776     -0.010535      0.055136
Li	      4.16061      2.09090      6.24839        -0.003906      0.030713      0.007947
Li	      6.23684      4.17541      6.25436        -0.064889      0.028473     -0.013595
Li	      8.29509      6.37919     10.56134         0.000603     -0.009629     -0.044276
Li	      4.21417      6.22216      6.25068         0.022971     -0.034430     -0.007948
Li	      8.34180      8.29148      8.53536        -0.015590     -0.019820      0.106246
Ti	      2.16283      6.25130      8.42075         0.038474     -0.109539      0.010767
Ti	      6.21913      2.12262      8.32463        -0.308879     -0.108177     -0.512153
Ti	      8.31452      4.15279      8.29932         0.293672      0.194154     -0.320657
Mn	      2.07568      4.12430      6.27172         0.116307     -0.122945     -0.028909
Cr	      4.16460      2.09738      2.10569         0.118226     -0.028837      0.021126
Cr	      6.27116      6.24551      8.45828         0.028839      0.058351     -0.030226
Fe	      4.18299      4.14261      4.32342         0.015295     -0.006742     -0.043558
Ni	      8.36323      4.12961      4.33970        -0.051219      0.063286      0.073750
Ni	      4.11118      8.27975      4.29165         0.091187     -0.044066      0.039713
O	      2.10595      2.05314      2.04515        -0.082634     -0.105418     -0.010948
O	      4.17748      4.15422      2.14569         0.100561      0.006648     -0.073694
O	      4.14520      2.12802      4.10299        -0.020716      0.021478     -0.049003
O	      6.21219      4.17236      4.07127        -0.060830      0.013582     -0.177919
O	      6.25325      2.07678      6.49752         0.003679      0.002746      0.439642
O	      8.34931      4.14977      6.44517        -0.008164      0.016474      0.352878
O	      2.13217      4.11742      4.02730        -0.020365     -0.004647     -0.011086
O	      4.20020      6.17302      4.03721        -0.016615     -0.048882     -0.075345
O	      4.05517      4.16865      6.22448        -0.040846      0.016615      0.126574
O	      6.25298      6.33050      6.45231        -0.013577      0.047612     -0.010634
O	      6.30209      4.17467      8.42094         0.061705     -0.108819     -0.104360
O	      8.34302      6.16227      8.40868        -0.085311      0.039647      0.021449
O	      2.08501      6.10850      6.52263         0.014869      0.083217      0.167506
O	      4.29980      8.29348      6.39183        -0.000396      0.007317      0.116815
O	      4.17397      6.31405      8.48629        -0.241089     -0.026622     -0.105860
O	      6.17945      8.30411      8.49611         0.091227      0.128528     -0.008033
O	      6.23391      6.18020     10.44413         0.167548      0.142818      0.016309
O	      8.37951      8.34929     10.54856        -0.105320     -0.127137     -0.026429
