# total energy = -244.95590803 eV
 
CRYSTAL
PRIMVEC
-0.029615 6.345010 6.256865 
6.387982 -0.042642 6.269819 
4.227723 4.207587 0.002644 
PRIMCOORD
36 1
Li	     10.44997      4.06429      6.23715        -0.002247     -0.035937     -0.004033
Li	      8.52066      8.57707     12.39957        -0.019926     -0.005109      0.047952
Li	      4.25405      2.04377      2.17134         0.008080     -0.008399     -0.025230
Li	      8.42018      4.16537      4.37034        -0.003072     -0.014438     -0.016707
Li	      2.29497      2.09478      4.17350         0.025568      0.031077     -0.062348
Li	      8.46917      6.17730      6.15744         0.007467     -0.014928     -0.002258
Li	      6.48094      4.21153      6.14632         0.011036      0.036240     -0.029180
Li	     10.51671      8.42167     10.49084        -0.008542     -0.017646     -0.001362
Li	      8.44935      8.39834      8.41681        -0.027079     -0.030411      0.018215
Ti	      6.38107      2.08810      8.12516        -0.019435     -0.085520     -0.196265
Ti	      4.27895      6.33604      6.12785        -0.034563     -0.058601     -0.147755
Ti	      6.20903      6.24521      8.42739        -0.206003     -0.020820      0.185908
Mn	      8.45256      6.36874     10.47186         0.005888      0.000383      0.019283
Cr	      6.35105      2.09988      4.21191         0.064255     -0.036146      0.081511
Cr	      6.36054      8.40059      6.26595         0.039170      0.044177      0.037909
Fe	      2.16592      0.06263      2.15625         0.028083      0.001094     -0.064289
Fe	      8.49524      4.16747      8.24566         0.078369     -0.015145      0.252282
Co	      4.24195      4.11946      4.19469         0.061664     -0.045441      0.002797
O	      1.91428      2.20498      2.11102        -0.141256     -0.007934     -0.035595
O	      4.15874      4.40876      2.06247        -0.005886      0.124042     -0.006785
O	      4.33916      2.09370      4.16081        -0.015345      0.087774     -0.044681
O	      6.35046      4.09631      4.12837        -0.024476      0.012181      0.179090
O	      6.35798      2.10666      6.29815        -0.008453      0.022486      0.251680
O	      8.49685      4.17298      6.37621        -0.021939      0.007160     -0.200121
O	      2.13157      4.23672      4.24377         0.034977     -0.044273     -0.034262
O	      4.24640      6.33149      4.22998         0.053640      0.043581      0.160534
O	      4.14875      4.36040      6.28492        -0.017541      0.085730     -0.056368
O	      6.27084      6.35829      6.35925        -0.071697     -0.015631      0.030775
O	      6.41303      4.22871      8.37046        -0.035703      0.068753      0.004817
O	      8.54476      6.24083      8.31342         0.050708      0.045763     -0.030810
O	      2.25678      6.21955      6.39184         0.079995     -0.040334     -0.059702
O	      4.31954      8.28223      6.28950        -0.018898     -0.073639     -0.011251
O	      4.36779      6.27340      8.25809         0.243152      0.003046     -0.038325
O	      6.37137      8.23781      8.36646        -0.022696     -0.089218     -0.057180
O	      6.30469      6.35668     10.32696        -0.046114      0.004880     -0.162660
O	      8.32905      8.42087     10.46589        -0.041180      0.041201      0.014412
