# total energy = -242.10521555 eV
 
CRYSTAL
PRIMVEC
0.011141 6.250799 6.576108 
6.128305 0.019935 6.566346 
4.092783 4.168508 0.006584 
PRIMCOORD
36 1
Li	      8.13795      2.21872      6.61231         0.016728     -0.039592      0.034363
Li	      4.04246      2.16924      2.24457         0.000819     -0.017681     -0.003050
Li	      8.16162      4.16836      4.56390        -0.014516      0.014395      0.105902
Li	      4.03251      6.17503      2.24300         0.081010      0.001625      0.018109
Li	      8.26428      4.31861      8.69380         0.025145     -0.061614     -0.001102
Li	      4.03166      4.20777      4.24867         0.031838     -0.043485     -0.009899
Li	      8.19325      6.15866      6.82876        -0.015886      0.017274     -0.002630
Li	      8.20792      6.24239     10.71886        -0.000289      0.012163      0.037422
Li	      6.28662      6.29443      8.81171        -0.102102      0.029757      0.024344
Ti	      6.02102      2.08271      4.51728        -0.112121      0.047113      0.316301
Ti	      6.01870      4.25309     10.81004        -0.221974      0.093660     -0.260816
Ti	      4.03487      6.26193      6.58718        -0.094888     -0.082973      0.072482
Mn	      6.08812      4.19969      2.21012        -0.036141      0.023927      0.010948
Cr	      2.08925      2.05670      4.35683         0.092969     -0.064917     -0.022063
Cr	      2.08664      4.14350      6.54240         0.079606      0.018677     -0.026288
Fe	     10.11883      4.18592      6.59878         0.021880     -0.060518      0.010963
Fe	      6.19767      4.14810      6.67577        -0.068467      0.069791      0.062413
Cu	      8.18292      8.27534      8.77683         0.072556     -0.000347      0.088904
O	      2.05242      1.95478      2.39329         0.014539     -0.042431     -0.022139
O	      4.19802      4.16938      2.15585         0.015093      0.003833      0.204551
O	      4.16448      2.05073      4.34230         0.188200     -0.004748     -0.025111
O	      6.16177      4.08406      4.39174         0.009048     -0.072124     -0.037013
O	      6.12533      2.08610      6.36883        -0.051519      0.024084     -0.323561
O	      8.14747      4.16520      6.69008         0.052409      0.031601     -0.042792
O	      1.96834      4.06728      4.50613         0.035745      0.061298     -0.016113
O	      4.16867      6.39093      4.48789        -0.065546     -0.002013     -0.025932
O	      4.10539      4.32371      6.39751        -0.169137      0.149372     -0.134594
O	      6.08092      6.31616      6.45967        -0.042252      0.071808     -0.054238
O	      6.11882      4.22870      8.95240         0.084033      0.008616      0.218281
O	      8.21426      6.36186      8.75773        -0.003683     -0.086992      0.036625
O	      2.10562      6.17004      6.49417         0.159139     -0.037924     -0.003500
O	      4.17006      8.24430      6.47120        -0.058755     -0.128204     -0.003544
O	      4.01672      6.20171      8.50306         0.030672      0.084898     -0.127383
O	      6.17101      8.41605      8.66318        -0.051207      0.007665     -0.105886
O	      6.14741      6.27613     10.94661        -0.000569      0.021932     -0.095381
O	      8.22949      8.37931     11.07445         0.097623     -0.047924      0.101428
