# total energy = -243.24174188 eV
 
CRYSTAL
PRIMVEC
0.011192 6.256961 6.311839 
6.304190 -0.005913 6.328749 
4.206327 4.186321 -0.007446 
PRIMCOORD
36 1
Li	      6.33798      6.32016     12.53544        -0.022926      0.036742     -0.034001
Li	      6.32132      4.13278      2.18788         0.022078     -0.044727      0.032682
Li	      6.33704      2.10023      4.28614        -0.017558     -0.023466      0.059427
Li	      6.31080      6.19023      4.24275         0.052526     -0.025036      0.008813
Li	      4.34573      4.16001      4.21854         0.149244     -0.063431      0.011601
Li	      4.25307      2.09757      6.30434         0.016363     -0.009371      0.021388
Li	      8.36281      6.28586     10.52931        -0.039347      0.022342     -0.035221
Li	      8.36375      8.30216      8.46606        -0.055385     -0.043427     -0.011708
Li	      6.31207      6.33281      8.43199        -0.009922      0.024735     -0.020484
Ti	      4.25865      8.29677      8.45827         0.209135     -0.304148      0.336090
Ti	      8.43277      4.27220      8.40694         0.001620      0.341762     -0.177453
Ti	      2.22894      4.14665      6.24241         0.270072     -0.160458      0.055582
Mn	      8.38540      4.16726      4.21960         0.010395      0.072565     -0.047459
Cr	      4.24045      6.24190      2.13391        -0.067745      0.009664     -0.019429
Cr	      6.28604      4.21180     10.54910        -0.094669      0.042684     -0.082552
Fe	      2.08241      8.19447      6.29782        -0.080782      0.068542     -0.026318
Fe	      4.18885      6.21992      6.20555         0.099595     -0.045702      0.058309
Ni	      6.26093      4.16684      6.29535        -0.036153      0.074618      0.035212
O	      2.13833      2.19533      2.14271        -0.008525      0.024830      0.026020
O	      4.08764      4.16515      2.17808        -0.075190     -0.046643     -0.003883
O	      4.26028      1.98780      4.03427        -0.047709      0.047050     -0.328678
O	      6.45227      4.16124      4.27776        -0.034622     -0.002157     -0.117546
O	      6.29299      2.10665      6.48296        -0.069776     -0.056463      0.071781
O	      8.34623      4.15769      6.51080         0.127859      0.014461      0.282162
O	      2.01977      4.19720      4.23173        -0.006582     -0.004110      0.010904
O	      4.22005      6.36157      4.15973        -0.003325      0.042684     -0.106403
O	      4.13654      4.12087      6.30539        -0.337469     -0.038511     -0.032260
O	      6.33434      6.38658      6.30457         0.015116      0.207214     -0.013258
O	      6.40457      4.08872      8.50722         0.081226     -0.003584      0.064822
O	      8.50589      6.15746      8.48687         0.016445     -0.293852     -0.013698
O	      2.06094      6.14557      6.27280         0.003286     -0.118699     -0.031717
O	      4.27002      8.41275      6.28107         0.077544      0.023639      0.046885
O	      4.16405      6.42615      8.28955        -0.010151      0.310264      0.099593
O	      6.16859      8.38824      8.24530        -0.163227     -0.012996     -0.102701
O	      6.14630      6.19764     10.50752         0.031704     -0.011212     -0.006563
O	      8.48031      8.46367     10.49185        -0.003147     -0.055802     -0.009942
