# total energy = -243.24746313 eV
 
CRYSTAL
PRIMVEC
0.002281 6.443446 6.225400 
6.244608 0.005595 6.222744 
4.181851 4.313276 -0.015838 
PRIMCOORD
36 1
Li	      8.18363      2.15389      6.28140        -0.017080      0.020814      0.006588
Li	      6.15745      4.27143      2.09644        -0.038644     -0.050757      0.037415
Li	      4.19915      2.25057      2.08472        -0.010395      0.034432      0.035822
Li	      6.24894      2.19334      4.19928         0.020691      0.002142      0.020134
Li	      6.24762      2.14160      8.16315        -0.018345     -0.003238      0.004414
Li	      4.24291      4.27313      4.06849        -0.003493      0.013599     -0.012217
Li	      4.32297      2.17553      6.25027        -0.054725     -0.010366     -0.005306
Li	      6.20983      4.10523      6.22338        -0.044313     -0.067681     -0.061630
Li	      6.33302      6.48975      8.28720         0.021730      0.004990     -0.056544
Ti	      4.05431      0.15975      4.04955        -0.035103      0.345980     -0.046396
Ti	      8.32377      4.26422      8.15846        -0.130252      0.017449     -0.165240
Ti	      4.22492      6.46904      6.33903         0.311226     -0.099251      0.042274
Mn	      6.19980      4.29882     10.29489        -0.035050     -0.027808     -0.048652
Mn	      6.31039      8.59555      6.26849         0.032857     -0.049966      0.034672
Cr	      6.27401      0.11903      6.25683        -0.044296      0.018384     -0.029717
Cr	      8.31811      6.48211     10.34521         0.018970      0.121098     -0.118597
Co	      6.24595      6.42185      4.09496        -0.048037     -0.072126      0.077605
Cu	      8.34518      8.55378      8.26751         0.188503      0.034207     -0.040373
O	      2.07434      2.36534      2.15549         0.013224      0.110604      0.016921
O	      4.07568      4.30471      2.00016        -0.012136     -0.018991      0.032236
O	      4.13821      2.00253      4.18273         0.000164     -0.369698     -0.035258
O	      6.40149      4.28570      4.13222         0.122649      0.095016     -0.029709
O	      6.24343      2.03902      6.21397         0.020617     -0.078879     -0.013426
O	      8.43673      4.27069      6.19053        -0.022455     -0.043701      0.089403
O	      2.12434      4.41762      4.21345         0.063303     -0.065087      0.036801
O	      4.08460      6.44915      4.33353         0.000232      0.015874      0.072924
O	      4.08714      4.44801      6.29673         0.020989      0.113351     -0.193624
O	      6.07654      6.41190      6.16535        -0.212902      0.049740      0.027861
O	      6.35390      4.29287      8.21249         0.133305     -0.006891     -0.036193
O	      8.32826      6.24962      8.38510        -0.013551     -0.295520      0.054505
O	      2.10961      6.54424      6.16797         0.016679      0.027284      0.044766
O	      4.32837      8.55639      6.25044        -0.013946      0.054331      0.062933
O	      4.17265      6.56966      8.31871        -0.032420      0.207632      0.047411
O	      6.35075      8.60602      8.15300        -0.116587      0.026224     -0.042445
O	      6.22183      6.45909     10.44471        -0.000662      0.012621      0.007630
O	      8.30356      8.56033     10.23562        -0.080749     -0.065814      0.183011
