# total energy = -246.01582804 eV
 
CRYSTAL
PRIMVEC
-0.014279 6.246950 6.388843 
6.313216 -0.003238 6.377736 
4.221569 4.170023 -0.014972 
PRIMCOORD
36 1
Li	      6.29389      0.04336      6.32475         0.017245      0.014123      0.020585
Li	      4.22502      6.25342     10.66192        -0.000138     -0.042533     -0.054171
Li	      6.31217      8.24165     10.65208         0.028533     -0.063788     -0.009465
Li	      4.22275      4.15737      4.33251         0.007966      0.025698      0.012887
Li	      6.26686      4.12297      6.37932         0.004854      0.028644      0.047130
Li	      8.36102      6.27114     10.54468         0.012384      0.005326     -0.043200
Li	      2.15399      4.17780      6.35416         0.030595     -0.021181      0.017325
Li	      8.45520      8.22519      8.46242         0.044325      0.034076     -0.034190
Li	      6.39806      6.28565      8.53700         0.043023      0.002239     -0.031057
Ti	      6.33717     10.28686      8.53382        -0.014859     -0.463490     -0.036127
Ti	      6.40313      6.25714      4.36383        -0.071413     -0.055947      0.555059
Ti	      6.22846      4.30978     10.59999        -0.190404      0.290629     -0.269575
Mn	      8.33926      2.15805      6.29734        -0.102470      0.068351     -0.032582
Mn	      4.19338      6.09859      6.36543         0.084617     -0.042667     -0.012424
Cr	      4.18863      2.10725      2.10038         0.194674      0.022813     -0.144297
Cr	     10.49122      6.25403      8.50046        -0.136169      0.075433     -0.069610
Co	      8.41181      4.22959      8.46148        -0.184746      0.140037      0.148553
Co	      4.24353      2.10915      6.37447        -0.048272     -0.001783      0.085351
O	      2.10998      2.05612      2.20210        -0.053149      0.207822      0.078795
O	      4.31256      4.16851      2.11625         0.201969     -0.043386      0.010445
O	      4.09470      2.11363      4.11618        -0.077695     -0.024678      0.076978
O	      6.32127      4.30285      4.08715        -0.003644      0.096841     -0.091807
O	      6.33009      2.11001      6.48769         0.116303     -0.030363      0.032917
O	      8.41015      4.19405      6.40961         0.019106      0.010970      0.472310
O	      1.99764      4.04684      4.23111         0.042561      0.048797     -0.313241
O	      4.33103      6.29335      4.15965         0.067303      0.012195     -0.063083
O	      4.19738      4.10307      6.36808        -0.010300     -0.064872      0.000725
O	      6.33147      6.22002      6.24999         0.049893      0.051048     -0.526574
O	      6.31628      4.09045      8.64957         0.044801     -0.071432      0.117870
O	      8.53817      6.24991      8.49271         0.014959     -0.577507     -0.106272
O	      2.09060      6.33206      6.57382        -0.073537      0.029575      0.114452
O	      4.12803      8.27747      6.38009        -0.011347      0.123840      0.045973
O	      4.05882      6.35359      8.52726        -0.143099      0.030887      0.065076
O	      6.18741      8.40803      8.53570        -0.021294      0.361782     -0.030585
O	      6.35151      6.12845     10.62587        -0.083967     -0.209687     -0.008307
O	      8.56532      8.31509     10.61073         0.201390      0.032187     -0.025865
