# total energy = -241.13258160 eV
 
CRYSTAL
PRIMVEC
0.015098 6.239568 6.558623 
6.235492 0.026652 6.547789 
4.154716 4.149874 0.019618 
PRIMCOORD
36 1
Li	     10.36643     10.36860     13.04334         0.002020      0.004002     -0.017189
Li	      8.37786      8.32200     12.99744         0.004576     -0.007015      0.022886
Li	      2.19301      6.22162      8.53700         0.012059      0.018844     -0.040550
Li	      8.31719     10.23926     11.04131         0.003945     -0.020922     -0.001286
Li	      6.26873      8.34371     10.91531        -0.006722     -0.004411     -0.008190
Li	      8.33418      6.23809      6.58062        -0.010316     -0.006243      0.004636
Li	      4.03614      8.30651      4.59103        -0.015867      0.020357      0.019023
Li	      4.11443      6.28780      6.67995         0.003722     -0.010466     -0.002898
Li	      8.27562      8.30220      8.88964        -0.036363      0.007056      0.012021
Ti	      4.18945      6.10885      2.14254         0.025079     -0.309161     -0.031622
Ti	      6.20061      4.17486      6.51102        -0.050362     -0.148790     -0.248661
Ti	      6.10767      6.21493      8.88026        -0.210107      0.113403      0.393737
Mn	      2.08770      6.30410      4.48816         0.008112     -0.027011     -0.005480
Mn	      2.14989      2.11471      4.38745         0.008277     -0.029254     -0.008299
Cr	      4.16473      8.36568      8.67581        -0.022598      0.028010      0.030146
Cr	      2.13924      4.19104      6.58161         0.037508      0.075103      0.012163
Cu	      4.22043      4.15509      4.40206         0.046323      0.110887      0.045348
Ni	      8.29797      4.20694      8.61543         0.064373     -0.062509      0.129359
O	      2.04551      2.10771      2.11662        -0.056871     -0.048560      0.061308
O	      4.14375      4.21644      2.01620         0.079716      0.130991     -0.168990
O	      4.19424      2.22395      4.12919        -0.046008     -0.117556     -0.023061
O	      6.21189      4.15278      4.59512         0.118213     -0.015436      0.244730
O	      6.17115      2.21903      6.76177         0.006170      0.252708      0.120885
O	      8.13305      4.20939      6.58579        -0.212613     -0.046874     -0.118332
O	      2.18062      4.27426      4.49562        -0.069870      0.042014      0.032469
O	      4.23148      6.21880      4.11230         0.010077      0.137812     -0.040647
O	      4.21487      4.20660      6.67179         0.115691     -0.032443      0.215958
O	      6.27043      6.24091      6.72258        -0.021319     -0.083083      0.020655
O	      6.24762      4.21738      8.65591        -0.121429      0.082933     -0.076519
O	      8.37236      6.22089      8.88051        -0.010537      0.112497     -0.054089
O	      2.12033      6.16709      6.46374         0.014265     -0.040393      0.021056
O	      4.28835      8.31454      6.67779         0.008570     -0.014363     -0.066743
O	      4.23474      6.33603      8.77525         0.280176      0.004156     -0.011992
O	      6.18330      8.22767      8.64502         0.048717     -0.086915     -0.107943
O	      6.19431      6.21526     10.72748         0.012417     -0.014810     -0.380271
O	      8.29362      8.19850     10.98122        -0.019023     -0.014555      0.026382
