# total energy = -240.23816998 eV
 
CRYSTAL
PRIMVEC
-0.022661 6.510131 6.320743 
6.175924 0.004749 6.293974 
4.125941 4.331035 -0.005961 
PRIMCOORD
36 1
Li	      6.21122      4.33737      2.26099         0.029187      0.034130     -0.095077
Li	      6.23649      2.34901      4.18031        -0.072755     -0.084939      0.006627
Li	      8.17098      4.46931      8.45108         0.025592     -0.026530      0.065798
Li	      6.19961      6.32607      4.25244         0.020671      0.051122      0.001584
Li	      4.28232      4.28958      4.22322        -0.121170     -0.019457     -0.004377
Li	      8.18067      6.54647      6.36586         0.030433      0.022018     -0.001568
Li	      6.25541      4.33845      6.18647         0.032644      0.001113      0.078190
Li	      8.20666      6.46584     10.42304         0.032137     -0.092335     -0.003850
Li	      8.23026      8.53484      8.50952        -0.044051     -0.016349     -0.016197
Ti	      6.11219      0.14232      6.19124        -0.289835      0.198335     -0.069779
Ti	      4.06940      2.25074      2.24530        -0.052328      0.036525      0.562906
Ti	      4.10539      6.26159      6.21424         0.057287     -0.357566     -0.206517
Mn	     10.25033      6.59117      8.51987        -0.000557      0.043889      0.046258
Mn	      6.13272      8.60413      6.23330         0.267303     -0.040959      0.099282
Cr	      8.24868      8.68445     12.57026        -0.119572      0.039675      0.069445
Cr	      6.18163      6.48254      8.43075         0.028090     -0.020539      0.052916
Cu	      8.15714      4.32441      4.15487        -0.126042      0.136647      0.038566
Cu	      6.16360      4.33973     10.44155         0.148619     -0.292095     -0.130485
O	      2.15783      2.14991      1.98975         0.174229      0.015390     -0.061307
O	      4.19267      4.16506      1.93735         0.032197     -0.133544     -0.050293
O	      4.10689      2.17773      4.07120         0.037178      0.053260     -0.470679
O	      6.26616      4.30462      4.21698        -0.060687     -0.064620     -0.065870
O	      6.24379      2.03053      6.34532         0.095100     -0.189355     -0.049404
O	      8.38673      4.22541      6.37693         0.231970      0.000293      0.114657
O	      1.95107      4.32394      4.37244        -0.009990      0.000056     -0.168754
O	      4.13400      6.38745      4.35218         0.031943     -0.117663      0.327257
O	      3.98981      4.41111      6.31382         0.050951      0.388773      0.008525
O	      6.04921      6.44640      6.39190        -0.139398     -0.022172     -0.056265
O	      6.14212      4.46069      8.47330        -0.021325      0.047415     -0.175798
O	      8.15865      6.51219      8.41855        -0.073852     -0.019985      0.029654
O	      2.04786      6.62924      6.24405         0.067639      0.029236      0.019434
O	      4.11734      8.77517      6.27749        -0.241269      0.028239      0.241279
O	      4.12731      6.71496      8.17690        -0.028843      0.016487     -0.216379
O	      6.06811      8.55408      8.22919        -0.108362     -0.002351      0.037939
O	      6.07298      6.66357     10.55204         0.089808      0.129082      0.097526
O	      8.30638      8.77796     10.58945         0.027058      0.228772     -0.055240
