# total energy = -46.50889464 eV
 
CRYSTAL
PRIMVEC
-0.000648 2.095809 2.098117 
2.082403 2.137739 -4.238820 
-4.191449 2.133866 -2.134919 
PRIMCOORD
8 1
Li	     -2.09717      4.23243     -2.10347        -0.086091     -0.183769      0.160185
Li	     -0.04493      2.23505     -2.23486        -0.071142      0.009352      0.002890
Mn	      0.00008      0.00158      0.00063        -0.196505      1.196961     -1.041699
Ni	     -2.12737      2.14840     -0.01819         0.413345      0.089161     -0.219557
O	     -2.14635      4.44788     -4.45237         0.107214     -0.507766      0.613705
O	     -2.25869      2.14940     -2.14646         0.001753     -0.095985      0.216624
O	      0.11771      4.31729     -2.19231        -0.031605     -0.217092      0.136139
O	      0.00526      2.01843      0.11343        -0.136968     -0.290863      0.131715
