# total energy = -246.41347883 eV
 
CRYSTAL
PRIMVEC
-0.011959 6.390914 6.471212 
6.224278 0.047246 6.411882 
4.162900 4.234381 0.018120 
PRIMCOORD
36 1
Li	      2.14762      6.28896      8.57416         0.017995      0.005620     -0.027518
Li	      4.15748      6.34239     10.59751        -0.024188     -0.000254     -0.086108
Li	      6.34576      8.42310     10.60840        -0.017076     -0.052894     -0.020097
Li	     10.34867      6.44755      8.59335         0.006861      0.024321      0.005573
Li	      6.22124      4.26071      6.44512         0.006129     -0.009662      0.005951
Li	      8.21973      6.53217     10.76871         0.028413     -0.000385      0.077347
Li	      6.22646      8.54609      6.60738        -0.019253      0.020415      0.031478
Li	      8.16925      8.54796      8.71709        -0.041340      0.006160      0.034961
Li	      6.17927      6.54299      8.73650        -0.027373      0.018658      0.039514
Ti	      8.21404      4.38316      8.53570        -0.174301      0.015789      0.165469
Ti	      4.26001      4.26681      4.33304         0.118405      0.070173     -0.220656
Ti	      4.18028      2.18142      6.45462         0.010630      0.120523      0.090953
Mn	      4.24773      8.47508      8.62924        -0.012625      0.012533     -0.146635
Mn	      4.16409      6.31490      6.56549         0.048162      0.118074      0.122038
Cr	      8.23478      2.14083      6.38529         0.025225     -0.048218     -0.023481
Cr	      2.07830      2.12268      4.26229         0.020172      0.043596     -0.033714
Fe	      6.12599      4.45369     10.70121         0.064729     -0.184118      0.069788
Co	      6.24300      6.44528     12.80988         0.281154      0.003267     -0.158870
O	      2.19333      2.22650      2.14524        -0.176010      0.107890     -0.004765
O	      4.06308      4.14744      2.28587        -0.049344      0.135001      0.134518
O	      4.09705      2.23219      4.37909         0.016085      0.087195      0.164317
O	      6.11918      4.35261      4.28013        -0.201901     -0.029017      0.031776
O	      6.17698      2.15780      6.43508        -0.182906      0.008967      0.012307
O	      8.29144      4.26259      6.55939        -0.025427      0.030734      0.110122
O	      2.10009      4.16475      4.20419        -0.005391     -0.022545     -0.094826
O	      4.23181      6.27367      4.28603        -0.002487     -0.088244      0.028775
O	      4.13226      4.17901      6.35072         0.046017     -0.242318     -0.162399
O	      6.37332      6.35475      6.28061         0.154576     -0.029172     -0.018224
O	      6.33728      4.26133      8.70318         0.241763      0.010475     -0.101084
O	      8.33006      6.31879      8.47528        -0.063779     -0.097196     -0.199378
O	      2.04262      6.52375      6.48483        -0.248448     -0.024274     -0.038959
O	      4.03531      8.52286      6.36019         0.018301      0.041919     -0.037203
O	      4.17240      6.55095      8.63140        -0.038750     -0.243607      0.002517
O	      6.12703      8.53276      8.59987         0.267829      0.036347      0.019365
O	      6.23827      6.34804     10.74065        -0.000943      0.163043      0.200059
O	      8.33330      8.55217     10.84603        -0.060906     -0.008798      0.027087
