# total energy = -243.87760023 eV
 
CRYSTAL
PRIMVEC
-0.001080 6.440548 6.286888 
6.229208 0.016980 6.268688 
4.167308 4.296183 -0.003171 
PRIMCOORD
36 1
Li	      4.19132     10.68216      6.27751        -0.044286     -0.019227      0.003599
Li	      2.14401      8.50899      6.32540        -0.004586      0.005374      0.002531
Li	      6.26770      2.34255      8.27785         0.044597     -0.024746     -0.040527
Li	      6.23644      4.29581      6.43372         0.050738     -0.007618     -0.041301
Li	      0.09178      4.22127      4.12997         0.052513     -0.027728      0.002218
Li	      6.15379      8.59514      6.31718         0.009285     -0.007415      0.033549
Li	      4.16233      6.59710      6.30380         0.012613      0.064778      0.019015
Li	      4.32898      4.34321      8.30775         0.027433     -0.001115     -0.049216
Li	      6.19682      6.29933      8.29640         0.011845     -0.022644     -0.032222
Ti	      8.42600     10.55292     10.45260         0.137460     -0.144617      0.141891
Ti	      4.10739      4.45560      4.22766        -0.256442      0.259891      0.177194
Ti	      8.31333      6.46075      6.47799        -0.094649     -0.075103      0.314181
Mn	      2.04294      6.44632      8.18189        -0.012873      0.002960      0.020718
Mn	      4.17181      8.57634      8.27690        -0.040920     -0.016047     -0.110543
Cr	      6.19977      2.16775      4.17621         0.058855     -0.053071      0.026362
Cr	      8.27946      6.48724     10.50767        -0.041777      0.001536     -0.054869
Fe	      6.21228      6.45026      4.21718        -0.062311      0.095272     -0.009737
Cu	      8.22610      4.25852      8.32218         0.104279      0.061498     -0.098907
O	      2.15973      2.14992      2.17026         0.044406     -0.135352     -0.121410
O	      4.06102      4.32423      2.26668         0.110115     -0.009476      0.092263
O	      4.20497      2.14531      4.09839         0.074629      0.008849      0.004486
O	      6.22929      4.21276      4.15031        -0.031572     -0.091795      0.031493
O	      6.06771      2.14441      6.17377        -0.116122      0.014452     -0.015162
O	      8.30696      4.47670      6.04184        -0.005183      0.044405     -0.342479
O	      2.17026      4.44303      4.27012         0.248491      0.072401      0.137278
O	      4.08743      6.35176      4.25134        -0.120124     -0.273778     -0.029576
O	      4.18690      4.11579      6.12903        -0.012289     -0.060151     -0.139856
O	      6.39125      6.44831      6.17878         0.152567     -0.003137      0.244814
O	      6.32462      4.28160      8.40037        -0.182784      0.031996     -0.009176
O	      8.30989      6.48475      8.33777         0.037255      0.118573     -0.164016
O	      2.06235      6.48692      6.16594        -0.009233     -0.005812     -0.086424
O	      4.15275      8.59064      6.42260        -0.002453      0.053809      0.057265
O	      4.15367      6.39080      8.55534        -0.003536      0.042454      0.087987
O	      6.12766      8.62527      8.44458        -0.050195     -0.012092      0.010173
O	      6.19643      6.54415     10.45216        -0.060157      0.024755     -0.007747
O	      8.25423      8.63839     10.49635        -0.025587      0.087921     -0.053849
