# total energy = -249.51399767 eV
 
CRYSTAL
PRIMVEC
0.072285 6.238421 6.335275 
6.441594 0.057272 6.350110 
4.312463 4.187273 0.019592 
PRIMCOORD
36 1
Li	      8.53195      2.17778      6.33060        -0.010988     -0.015664     -0.031970
Li	      6.40339      4.29467      2.28520         0.001712      0.009835     -0.005895
Li	      8.44040      4.20684      4.29289         0.026619     -0.026499      0.006921
Li	      6.44934      2.28740      4.30045        -0.014897      0.061875      0.014735
Li	      0.14027      2.07903      2.05017        -0.005552     -0.008405      0.000147
Li	      4.43499      4.19178      4.35994         0.029745     -0.050679      0.038964
Li	      6.40630      4.17482      6.28691         0.005407     -0.067262     -0.002711
Li	      6.50105      4.18522     10.52941        -0.029198     -0.014753     -0.008211
Li	      2.26855      4.14537      6.30852         0.032070      0.003439      0.005161
Ti	      6.44181      6.32986     12.56948        -0.068616      0.169845     -0.076073
Ti	      4.42647      2.15776      2.21004         0.064380      0.060849      0.256524
Ti	      2.29096      6.30057      4.27646         0.129070      0.286731      0.124422
Mn	      6.50942      6.26569      4.29559         0.042672     -0.007128     -0.057617
Mn	      4.32957      6.25758      6.32834         0.015155     -0.055311      0.029233
Mn	      4.37146      4.20194      8.43681        -0.003510     -0.023474     -0.020205
Cr	      2.15746      4.12848      2.11108         0.020676     -0.044487      0.048308
Cr	      6.50121      6.26593      8.47606         0.082185     -0.008897      0.011080
Co	      4.34962      2.13212      6.27336        -0.055886      0.079678      0.082142
O	      2.26327      2.12899      2.20770         0.042874      0.052312     -0.028245
O	      4.25775      4.11896      1.98853        -0.054418     -0.130466     -0.097185
O	      4.33758      2.16748      4.09782         0.026049     -0.031054     -0.463422
O	      6.47710      4.39822      4.25794        -0.000249      0.008425      0.024421
O	      6.39355      1.99571      6.35785        -0.089650     -0.232219     -0.043976
O	      8.73026      4.28935      6.38463         0.144730      0.030302      0.083440
O	      2.15217      4.10537      4.13186         0.029805      0.053356     -0.038205
O	      4.17938      6.24023      4.20578        -0.183757      0.010386      0.049307
O	      4.32615      4.12314      6.37428         0.031862     -0.084485     -0.065382
O	      6.57402      6.32878      6.37826         0.094190     -0.040800      0.082038
O	      6.59346      4.28316      8.43551         0.008342      0.028653      0.020378
O	      8.51282      6.19789      8.58873         0.002104     -0.037801      0.197197
O	      2.06673      6.20552      6.20501        -0.103832      0.063832     -0.237408
O	      4.31980      8.43235      6.49453        -0.026765      0.117366      0.064815
O	      4.48110      6.37049      8.47920         0.043112      0.135368     -0.073218
O	      6.41341      8.31844      8.50996        -0.233628     -0.027935     -0.043031
O	      6.59481      6.22479     10.60282        -0.002002      0.046073      0.117657
O	      8.63331      8.22395     10.56794         0.010188     -0.311008      0.035860
