# total energy = -245.92900448 eV
 
CRYSTAL
PRIMVEC
0.027826 6.238012 6.538455 
6.233106 0.007176 6.559359 
4.149597 4.166861 0.011578 
PRIMCOORD
36 1
Li	      2.15927      8.26982      6.62182        -0.043288      0.054249      0.036254
Li	      3.98981      2.10046      2.17647         0.025762     -0.036726     -0.026045
Li	      4.19822      6.27190     10.85400        -0.010036     -0.039214     -0.038557
Li	      2.11483      4.10215      2.43046        -0.016200      0.050146      0.019718
Li	      2.04151      2.23802      4.22887        -0.003712     -0.053561     -0.092095
Li	      4.01176      4.20235      4.28832         0.058649      0.029988     -0.037335
Li	      0.16428      4.11618      4.42247        -0.077060      0.005934      0.037141
Li	      2.13674      6.08542      4.37372         0.014101      0.083816     -0.008797
Li	      6.29478      6.19813      8.81383         0.040193      0.029491      0.056303
Ti	      6.13470      8.25534     10.83386        -0.130346     -0.064530      0.006668
Ti	      6.37979      4.23241      6.47653        -0.269141     -0.820311     -0.311100
Ti	      8.39239      8.35860      8.89978        -0.096405      0.031299      0.357602
Mn	      4.19456      6.22742      2.36278        -0.073490     -0.056020      0.058434
Mn	      2.09437      4.13387      6.34852        -0.249121      0.350230     -0.010387
Mn	      8.23908      6.22181      6.52713         0.651689      1.125749      0.061409
Cr	      0.03508      6.22106      6.52473         0.204847     -0.126717     -0.027070
Cr	      4.09380      6.29492      6.45734         0.173330     -0.089285      0.166239
Cu	      2.06151      0.03953      2.17521         0.055881     -0.097993      0.054431
O	      1.93945      2.01160      2.22686        -0.014471      0.105519     -0.011499
O	      4.21101      4.27111      2.04126        -0.121281      0.016337     -0.042420
O	      4.26903      2.09329      4.30173         0.215028      0.015297     -0.101226
O	      6.27124      4.05230      4.63068         0.056042     -0.000984      0.560034
O	      6.17563      2.08027      6.42568         1.076045      0.213544     -0.164422
O	      8.33452      4.22999      6.58767        -0.883480     -1.193487     -0.008355
O	      2.09688      4.15283      4.33690         0.063734     -0.088765     -0.057978
O	      4.16585      6.25114      4.49470         0.027326     -0.035915     -0.133373
O	      4.28670      4.16613      6.67187         0.089187      0.916120      0.032241
O	      6.19230      6.15222      6.62803        -0.772829     -0.561871      0.021578
O	      6.21167      4.09130      8.61366        -0.149127     -0.029625     -0.012740
O	      8.42999      6.38506      8.73117         0.121475      0.146709      0.106814
O	      2.07628      6.27216      6.47467        -0.192172     -0.054890     -0.150548
O	      4.11837      8.34764      6.61636         0.094943      0.099235     -0.044408
O	      4.12258      6.14289      8.58450         0.044757     -0.130875     -0.016324
O	      6.34834      8.33320      8.86756         0.118807     -0.071176      0.146766
O	      6.24288      6.37261     11.03321        -0.049201      0.242846      0.050103
O	      8.26442      8.40795     10.72976         0.019566      0.035437     -0.477053
