# total energy = -246.92535256 eV
 
CRYSTAL
PRIMVEC
0.041754 6.338337 6.356667 
6.297719 0.045366 6.352349 
4.227913 4.252242 0.000939 
PRIMCOORD
36 1
Li	     10.34652      4.37039      6.38444         0.020898     -0.001273      0.023167
Li	      8.36149      2.31790      6.44771         0.008148     -0.023002      0.021241
Li	      4.18229      2.21979      2.03855         0.041145     -0.005428     -0.062743
Li	      8.45385      4.29258      4.41429         0.002640      0.008973      0.016389
Li	      6.25430      2.15186      8.38212        -0.008951      0.007118     -0.007091
Li	      8.49456      4.29985      8.33712         0.014436     -0.000254      0.010935
Li	      8.47737      6.24066      6.44211        -0.044012      0.035592      0.000264
Li	      6.32912      8.46318      6.33649         0.031758     -0.055318     -0.014922
Li	      4.29861      6.37120      6.32230         0.008457     -0.003803      0.018302
Ti	      2.15407      6.44155      8.21897         0.029150      0.185058     -0.436486
Ti	      4.15640      4.21164      4.26056        -0.046092     -0.128417      0.042534
Ti	      4.14359      8.47583      4.41841        -0.001881      0.028212      0.702626
Mn	      2.15828      2.09983      4.23012        -0.003007     -0.021550     -0.017151
Mn	      6.30087      6.41272      8.38625        -0.061973      0.021463     -0.023561
Mn	      4.21254      4.22577      8.41444        -0.050513     -0.000103     -0.056966
Cr	      6.33425      2.13039      4.32361        -0.028116     -0.060837     -0.026717
Cr	      6.39951      4.23574      6.38129         0.021681      0.052762      0.017635
Ni	      2.13720      6.35228      4.27796         0.026328     -0.044191      0.108999
O	      2.21089      1.94986      2.12697        -0.073254     -0.246811     -0.054134
O	      4.38849      4.28217      2.28529         0.031743      0.020082      0.031565
O	      4.33040      2.28924      4.19817        -0.020451      0.137282     -0.020038
O	      6.26758      4.16244      4.29552        -0.018071     -0.051465      0.003794
O	      6.31413      2.22258      6.26426        -0.016625     -0.002519      0.013957
O	      8.34231      4.27484      6.40999         0.026120      0.019725     -0.013241
O	      2.18209      4.27851      4.18842         0.082539     -0.095738     -0.019063
O	      4.21422      6.45219      4.23605         0.081847      0.040892     -0.034540
O	      4.29371      4.29616      6.15845        -0.015462     -0.015429     -0.116673
O	      6.35844      6.27162      6.30571        -0.029450     -0.013677      0.010907
O	      6.19031      4.24357      8.44819         0.024846     -0.057459      0.043651
O	      8.43454      6.56006      8.55183         0.031065      0.040397     -0.061205
O	      2.10899      6.31027      6.40820         0.011195      0.015982      0.509505
O	      4.29722      8.46030      6.20558        -0.025698      0.017957     -0.671333
O	      4.10801      6.20104      8.45460        -0.076412      0.009230      0.003558
O	      6.44706      8.58335      8.58189         0.055528      0.071556      0.050105
O	      6.34740      6.30385     10.61340        -0.102950      0.012280      0.027950
O	      8.51052      8.48662     10.66943         0.073392      0.102715     -0.021221
