# total energy = -253.76945308 eV
 
CRYSTAL
PRIMVEC
0.046811 6.323394 6.452657 
6.371802 0.030564 6.469361 
4.253854 4.232297 0.014364 
PRIMCOORD
36 1
Li	      4.22645      4.27142      0.08651        -0.057199      0.027977      0.028757
Li	      6.28631      4.27236      2.22762        -0.071448      0.065461      0.017789
Li	      4.25775      2.20507      2.24999         0.024989      0.013198      0.092873
Li	     10.59416      6.31251      8.59429        -0.040196      0.009257     -0.055863
Li	      2.17570      2.08456      4.28701         0.019860      0.021252      0.003680
Li	      4.30468      2.13347      6.46008        -0.000046      0.008725     -0.035915
Li	      6.37481      4.22806      6.41390         0.007734     -0.022827     -0.093888
Li	      8.53255      6.36922     10.73003        -0.025042     -0.000255     -0.034545
Li	      8.52665      8.37589      8.60770        -0.004218     -0.077526     -0.022566
Ti	      2.02279      2.10715      0.15723        -0.368879      0.046426      0.215284
Ti	     10.62632      8.46762     10.75556        -0.130479      0.168348     -0.052270
Ti	      4.37228      6.27637      6.51460         0.233873     -0.176199      0.132644
Mn	      4.13427      0.14835      4.31717         0.003121     -0.012072     -0.004398
Mn	      6.42178      8.45290     10.75583         0.020948     -0.049722      0.025041
Mn	      2.13952      4.29849      6.50441         0.031788     -0.012891      0.021079
Mn	      6.46823      6.34894      8.59098         0.006265      0.008838     -0.012654
Cr	      2.17514      4.23963      2.14143        -0.027442     -0.059061     -0.004181
Cr	      4.28116      4.25057      4.25276         0.001276     -0.056549      0.034551
O	      2.15746      2.19515      2.02329        -0.015219      0.023381     -0.255395
O	      4.15275      4.26333      2.26932         0.024807     -0.000298     -0.018839
O	      4.23849      2.23875      4.35169        -0.027257      0.109580     -0.050619
O	      6.29025      4.27066      4.24961        -0.083231      0.040381     -0.013563
O	      6.54021      2.09842      6.46544         0.389858      0.033767      0.088763
O	      8.52354      4.12238      6.56155        -0.009461     -0.155154      0.069334
O	      2.10448      4.23706      4.22492        -0.039024      0.022112     -0.044432
O	      4.26364      6.40209      4.41340        -0.017056      0.061077      0.028205
O	      4.27520      4.36599      6.32945         0.067965      0.219561     -0.012492
O	      6.26006      6.34727      6.43025        -0.279809     -0.027718     -0.035652
O	      6.45550      4.27900      8.76952         0.016461      0.034301      0.134435
O	      8.39262      6.26960      8.56419         0.037482      0.028208      0.028627
O	      2.31079      6.45628      6.54013         0.072778      0.114664      0.044241
O	      4.24189      8.35174      6.32051        -0.038553     -0.051543     -0.047509
O	      4.45229      6.33122      8.47217         0.028881     -0.038644     -0.191670
O	      6.48152      8.29799      8.62510        -0.010250     -0.038770     -0.031602
O	      6.39708      6.18220     10.82974         0.036978     -0.215951     -0.004251
O	      8.67937      8.47024     10.86940         0.219745     -0.061334      0.057001
