# total energy = -258.58632067 eV
 
CRYSTAL
PRIMVEC
-0.028541 6.405705 6.336055 
6.376616 -0.007829 6.315192 
4.222364 4.227904 0.023154 
PRIMCOORD
36 1
Li	      8.50168      8.48582     12.48939        -0.021432     -0.059591     -0.083120
Li	      4.21403      8.48198      8.44316        -0.004898      0.018510      0.004994
Li	      4.25584      6.42744     10.54228         0.001338      0.002616     -0.078063
Li	      6.31481      8.43014     10.56074        -0.040024     -0.027424     -0.073823
Li	      8.46862      6.30087      6.29407         0.004428      0.000719      0.006918
Li	      4.14764      8.42944      4.38022         0.001822     -0.019554     -0.027978
Li	      2.14133      6.44719      4.32182         0.007239     -0.024696      0.001512
Li	      6.22986      8.57148      6.36790        -0.060921      0.061491      0.011460
Li	      4.19529      6.46113      6.29561         0.026896      0.027807      0.046477
Ti	      6.37115      6.26160     12.47593         0.195468     -0.205695     -0.329281
Ti	      2.19729      2.25179      4.34487         0.086926      0.107141      0.062326
Ti	      6.36257      4.08560      6.25328        -0.095797     -0.117790     -0.051766
Ti	      8.36344      8.50146      8.56805        -0.148687      0.086282      0.354049
Mn	      2.13587      6.45349      8.39142         0.030518     -0.003970      0.008386
V	      6.36212      2.17901      8.42466        -0.029096     -0.047732      0.072964
V	      8.47709      4.27396      8.44809         0.018077      0.064607      0.064126
V	      6.33559      6.39804      8.47486        -0.037103      0.015696      0.002969
V	      4.23796      4.22056      4.33469        -0.009652      0.042083     -0.035661
O	      2.09137      2.23548      2.26112         0.042657      0.016335      0.050380
O	      4.12289      4.30309      2.10544         0.009322     -0.080275     -0.038702
O	      4.10832      2.12768      4.19192        -0.204371     -0.058584      0.030776
O	      6.35681      4.32374      4.30246         0.098177      0.025304      0.204830
O	      6.35909      2.15921      6.27435         0.011767      0.175924     -0.036379
O	      8.44173      4.22160      6.37213        -0.026491     -0.018525      0.015456
O	      2.13127      4.18756      4.24882        -0.043371     -0.157770     -0.020539
O	      4.36775      6.33507      4.24949         0.089199      0.095067      0.058741
O	      4.41201      4.19552      6.43250         0.166960     -0.008729      0.106834
O	      6.36428      6.26236      6.28565         0.024483     -0.076266     -0.226853
O	      6.38055      4.27653      8.32996        -0.024711     -0.024409     -0.048537
O	      8.46132      6.37313      8.45945         0.004310      0.064681     -0.020663
O	      1.88098      6.44644      6.32145        -0.199195     -0.051078     -0.090068
O	      4.16377      8.66586      6.36326         0.005346      0.290832      0.000548
O	      4.23943      6.23178      8.39689        -0.023338     -0.108996     -0.006387
O	      6.44944      8.49753      8.43560         0.188055      0.035175      0.017008
O	      6.29798      6.39613     10.62228         0.011992     -0.060799      0.429793
O	      8.50659      8.45966     10.38717        -0.055894      0.021615     -0.382726
