# total energy = -256.44754333 eV
 
CRYSTAL
PRIMVEC
0.042735 6.304132 6.252734 
6.311168 0.045800 6.249505 
4.233680 4.226811 0.004310 
PRIMCOORD
36 1
Li	      6.32760      6.40050     12.34117         0.008051     -0.016727      0.024275
Li	      4.27338      6.31200     10.41097        -0.006623     -0.011532     -0.004441
Li	      6.42021      8.36598     10.40247        -0.012017     -0.014868     -0.020211
Li	      6.31653      6.22914      4.20285        -0.013306     -0.039245     -0.038595
Li	      4.33048      4.28482      4.17535         0.057389      0.034473     -0.043706
Li	      6.32686      4.27892      6.11818         0.033720     -0.020631     -0.077551
Li	      8.35623      6.41531     10.37379        -0.017856      0.001760      0.017068
Li	      8.48414      8.45309      8.43827         0.036602     -0.001349      0.039203
Li	      6.37980      6.30549      8.46908        -0.010604     -0.017888      0.000674
Ti	      8.29532      2.19749      6.19705        -0.127037      0.053471     -0.117784
Ti	      4.25716      2.12393      2.21067        -0.040065      0.078524      0.165750
Ti	      4.23598      2.14981      6.15948         0.024092      0.016161      0.000912
Ti	      2.20782      4.12827      6.18824         0.076241      0.033362     -0.069895
V	      6.35242      4.21077      2.21359        -0.103708      0.091070     -0.039084
V	      6.30711      4.33986     10.44519        -0.026015      0.066782     -0.015670
V	      6.30857      2.16374      8.32563         0.036151     -0.083084     -0.000813
Cr	      8.42030      4.29864      8.37381         0.045898     -0.012327      0.052297
Cr	      4.29402      6.26655      6.22453        -0.032124      0.040872     -0.018177
O	      2.16139      2.16423      2.07876         0.088107      0.065935      0.022931
O	      4.23893      4.15641      2.08774        -0.038875     -0.072781      0.028342
O	      4.22626      2.11180      4.16880        -0.017112     -0.003725     -0.041570
O	      6.33116      4.24745      4.07996         0.036202     -0.040100      0.066496
O	      6.32091      2.15647      6.20100         0.062232     -0.011513     -0.074085
O	      8.41955      4.23316      6.34316         0.021921     -0.028560     -0.019203
O	      2.08583      4.24824      4.19946         0.014556     -0.010623      0.086862
O	      4.24706      6.44684      4.22360         0.005288     -0.048952      0.205446
O	      4.18129      4.24418      6.24161         0.033387      0.059107     -0.013009
O	      6.32665      6.40854      6.23340        -0.047824     -0.085029     -0.018017
O	      6.44948      4.23161      8.39527         0.000525      0.124151     -0.040187
O	      8.47005      6.28040      8.21227        -0.106763     -0.003823     -0.064215
O	      2.19156      6.36125      6.33751         0.129237     -0.001322     -0.016965
O	      4.24448      8.37283      6.32546         0.024446     -0.091922      0.028755
O	      4.19363      6.41213      8.26556         0.012262     -0.003318     -0.058807
O	      6.32814      8.45841      8.23491        -0.104045     -0.077941     -0.079258
O	      6.34328      6.25608     10.42655        -0.014508      0.026354      0.013163
O	      8.50590      8.46425     10.53461        -0.027826      0.005236      0.119069
