# total energy = -254.99203726 eV
 
CRYSTAL
PRIMVEC
0.001006 6.271942 6.316874 
6.290986 0.010860 6.307100 
4.193967 4.174734 0.007233 
PRIMCOORD
36 1
Li	      2.21578      8.37307      6.29580         0.102641      0.012481      0.013875
Li	      4.18380      8.33260      8.38555         0.027393      0.001924      0.026813
Li	      6.28677      6.25712      4.27173         0.002273     -0.012302      0.011907
Li	      4.18346      4.17679      4.30395         0.012944      0.002199     -0.052470
Li	      4.17716      2.17482      6.27795         0.000178     -0.026815      0.006585
Li	      6.14057      4.22078      6.31364        -0.110148      0.011300     -0.022452
Li	      4.19603      8.30401      4.30276         0.004724      0.026389     -0.027709
Li	      4.23504      6.28212      6.25919        -0.011783      0.010630     -0.062149
Li	      4.21436      4.19292      8.32263        -0.008819     -0.017914     -0.038884
Ti	      2.07602      0.06018      2.08144        -0.056096      0.077703      0.030710
Ti	      8.34301      4.21308      4.32545         0.003092      0.156351      0.214550
Ti	      6.31990      2.12300      8.35312        -0.045049      0.107687     -0.056492
Ti	      2.15581      4.11209      6.22247         0.140710     -0.216825     -0.052733
V	      6.30214      2.09978      4.24268        -0.004297      0.012054      0.070491
V	      2.11593      4.10462      2.09492        -0.042459      0.106402     -0.021886
V	      8.43224      6.37270     10.54747        -0.004177     -0.006376     -0.007584
V	      6.23199      6.22734      8.37855         0.157829     -0.076522     -0.007059
Co	      4.17734      4.12714      0.03859        -0.007685     -0.018671     -0.001351
O	      2.08303      2.01874      2.09072         0.000456     -0.135916      0.037388
O	      4.26533      4.20027      2.16935         0.103825     -0.007649     -0.019806
O	      4.22572      1.93780      4.23375        -0.137380     -0.235449     -0.015064
O	      6.36688      4.18828      4.13909         0.068920      0.112376     -0.059392
O	      6.27305      2.06168      6.39455         0.032828     -0.015482      0.222863
O	      8.40479      4.14009      6.24145        -0.018859      0.025095     -0.210983
O	      2.10414      4.27048      4.26970        -0.006464     -0.018287      0.119916
O	      4.10785      6.31124      4.03817         0.088283     -0.048219     -0.043019
O	      4.03397      4.21668      6.27787        -0.154373      0.002808      0.039386
O	      6.25374      6.37435      6.38355         0.012049      0.135128     -0.225031
O	      6.30474      4.23054      8.34027        -0.146920     -0.237086     -0.017840
O	      8.37599      6.25008      8.47864         0.020444      0.119877     -0.080770
O	      2.11972      6.24440      6.40342         0.022806     -0.008130      0.131015
O	      4.36110      8.40849      6.31446        -0.001208      0.044795      0.033291
O	      4.12251      6.23938      8.56423         0.006979      0.048807     -0.036392
O	      6.28580      8.34893      8.37418        -0.012776      0.078561     -0.055582
O	      6.28283      6.27317     10.43173        -0.088329     -0.081869      0.180874
O	      8.39974      8.39675     10.57113         0.048447      0.070948     -0.025017
