# total energy = -252.76307902 eV
 
CRYSTAL
PRIMVEC
0.011689 6.370409 6.337470 
6.224891 0.013804 6.335149 
4.149986 4.245217 0.009458 
PRIMCOORD
36 1
Li	     10.28361      4.30903      6.34611        -0.041718      0.018778      0.052933
Li	      4.13278      2.20616      2.21066        -0.014946      0.028316     -0.047490
Li	      4.17466      0.06750      4.24363         0.005691     -0.016460      0.012487
Li	      2.15616      4.23362      2.12000         0.028665     -0.012688      0.008822
Li	      4.16288      4.16267      4.15496        -0.001232      0.000415     -0.021310
Li	      4.22718      2.07517      6.25709         0.029910     -0.034145      0.005608
Li	      6.21803      4.28373     10.53598         0.005815      0.025324     -0.000300
Li	      8.27447      6.39040     10.52218        -0.050913     -0.013713     -0.009642
Li	      8.32022      8.47573      8.55825         0.004168     -0.018992      0.079065
Ti	      8.32832      8.57639     12.56782         0.040763      0.104320     -0.259274
Ti	      2.10376      4.34324      6.27811        -0.224734     -0.182462     -0.135484
Ti	      4.12812      6.37736      6.31629         0.089446      0.183044      0.031748
Ti	      6.33154      6.34478      8.60274         0.152646     -0.049107      0.467908
V	      6.25328     10.53733      8.48713         0.029608      0.014599      0.016102
V	      4.08992      6.31606      2.20382        -0.024555      0.050588      0.013996
V	      6.20245      4.25080      6.31079         0.116424     -0.056254      0.013222
V	      2.19679      2.16529      4.20671        -0.106152      0.040310     -0.074713
Cu	      6.15666      8.42822     10.55460         0.111656     -0.124262     -0.020101
O	      2.05221      2.05738      2.09743         0.032348      0.085085     -0.082187
O	      4.17270      4.38815      2.14027        -0.071240     -0.105439      0.012541
O	      4.09874      2.14674      4.22457         0.217678     -0.025008      0.015150
O	      6.23124      4.39892      4.29294         0.022737      0.023180      0.054191
O	      6.28848      2.19218      6.52364        -0.010368      0.008836      0.025473
O	      8.22525      4.12459      6.34073         0.041560     -0.165567     -0.017978
O	      2.06612      4.18803      4.37738         0.035155      0.044867      0.229146
O	      4.21257      6.42695      4.27564         0.006892      0.018181      0.184843
O	      4.14501      4.34044      6.30649        -0.078828      0.234959     -0.049591
O	      6.20473      6.42086      6.34208        -0.005786     -0.087264      0.065767
O	      6.20489      4.30950      8.34906         0.012787      0.032025     -0.008802
O	      8.22067      6.36403      8.48305        -0.236386      0.003859     -0.017184
O	      2.07330      6.37004      6.31981         0.124491     -0.017615     -0.002751
O	      4.14859      8.45784      6.35231        -0.122807      0.021518     -0.019914
O	      4.25607      6.34262      8.28466         0.078814     -0.013932     -0.175780
O	      6.24861      8.37147      8.26130         0.009491     -0.076490     -0.169343
O	      6.21729      6.30011     10.42094        -0.019206      0.055059     -0.458484
O	      8.30082      8.47757     10.73865        -0.187876      0.006134      0.281326
