# total energy = -254.74481631 eV
 
CRYSTAL
PRIMVEC
0.012016 6.371909 6.362582 
6.303377 0.036759 6.337800 
4.215094 4.244382 0.011658 
PRIMCOORD
36 1
Li	      6.28531      0.12907      6.32822        -0.037360      0.030860     -0.029763
Li	      6.23875      4.33376      2.34422        -0.003287      0.008619     -0.093635
Li	      8.19685      4.23199      4.31523         0.116332     -0.029953      0.054713
Li	      6.33752      2.37601      4.32836         0.008540     -0.077710      0.022833
Li	      4.25029      6.29461      2.10370        -0.051916      0.006010     -0.015091
Li	      6.30123      6.11576      4.19803         0.002131      0.058939     -0.023821
Li	      4.48291      4.28094      4.16204        -0.070932      0.005397     -0.010910
Li	      6.35393      4.18774      6.10017        -0.028577     -0.007071      0.069357
Li	      8.42626      6.47688     10.58768        -0.005060      0.044108     -0.013938
Ti	      4.17266      2.17276      2.30709        -0.101079      0.089406      0.396526
Ti	      2.15278      4.30149      6.23061         0.070289     -0.037357     -0.202103
Ti	      4.17491      6.28182      6.27527        -0.006898     -0.051722     -0.238603
Ti	      6.31819      6.41360      8.59453         0.115334     -0.065600      0.282048
V	      2.14195      4.24160      2.12733        -0.065572      0.056822      0.073656
V	      4.25056      2.12588      6.25536        -0.099977      0.088223     -0.037580
V	      4.19200      8.49162      4.29734         0.011706      0.008415     -0.034380
V	      8.39978      8.56161      8.50238         0.036849     -0.045498      0.008942
Fe	      8.21675      2.17473      6.33329         0.069750     -0.017370     -0.038690
O	      2.22624      2.16700      2.10917         0.133116     -0.026724      0.058253
O	      4.12416      4.12726      2.16565         0.089779     -0.145473     -0.027414
O	      4.23000      2.10908      4.14009         0.014586     -0.026101     -0.400445
O	      6.33848      4.24996      4.22058         0.005767      0.000229     -0.031922
O	      6.23203      2.12164      6.36157         0.027495     -0.000010      0.002970
O	      8.40995      4.36585      6.49065        -0.007641     -0.091383     -0.013481
O	      2.04076      4.27081      4.28667         0.046466      0.003238      0.157899
O	      4.23930      6.45402      4.38495         0.006133     -0.023573      0.188481
O	      4.19961      4.24886      6.32743        -0.041591      0.153714     -0.040470
O	      6.30123      6.46286      6.44680        -0.105152     -0.003700      0.047866
O	      6.35777      4.36019      8.54159         0.052330      0.112076     -0.003952
O	      8.34887      6.41735      8.39942        -0.076704     -0.057638      0.048454
O	      2.18791      6.29569      6.36857         0.051594     -0.101527     -0.043796
O	      4.26338      8.40811      6.39880        -0.042623      0.035803      0.089100
O	      4.28018      6.45635      8.33979         0.075236      0.127775     -0.002139
O	      6.25976      8.45616      8.33636        -0.120329     -0.075055     -0.029595
O	      6.35082      6.31960     10.46533        -0.012592      0.043625     -0.249679
O	      8.55230      8.52307     10.57218        -0.056143      0.010204      0.080310
