# total energy = -252.11512957 eV
 
CRYSTAL
PRIMVEC
0.000005 6.299103 6.327854 
6.243503 -0.029038 6.357000 
4.146444 4.202672 -0.003441 
PRIMCOORD
36 1
Li	     10.26709      4.22094      6.33554         0.015927      0.067564     -0.019648
Li	      8.27030      2.22233      6.34890        -0.089305      0.052487     -0.027813
Li	      6.23811      2.13762      4.34207         0.014810      0.015613      0.059789
Li	      8.30750      4.17056      8.29122        -0.048999      0.048296     -0.072732
Li	      6.22988      6.27767      4.34179         0.060348     -0.022575      0.026535
Li	      8.27093      6.25919      6.34632         0.020602     -0.001267      0.004977
Li	      6.19733      4.24968      6.30814        -0.006323      0.005722     -0.026892
Li	      4.26171      6.15937      6.30422         0.013792     -0.029090      0.002866
Li	      4.17562      4.13737      8.34521         0.008265     -0.026248     -0.012298
Ti	      2.11004      6.31962      8.37629        -0.222991     -0.268430     -0.109461
Ti	      4.10112      2.07012      2.11125         0.203981      0.240978      0.177315
Ti	      6.17874      2.08778      8.30984        -0.133795      0.033118     -0.667638
Ti	      4.15391      8.33031      4.28024        -0.130386      0.072493     -0.034789
V	      8.28022      4.21093      4.36899         0.030359     -0.010989      0.060240
V	      2.09654      6.37083      4.30571        -0.114201     -0.024967      0.025928
V	      6.30238      8.30729      6.32979         0.029928      0.007785      0.087947
V	      6.25368      6.21549      8.43276         0.123130     -0.033566      0.078225
Ni	      4.19142      4.17775      4.27266        -0.028316     -0.022347      0.011708
O	      2.05926      2.04838      2.04682         0.185455     -0.063018      0.027349
O	      4.18813      4.21111      2.16683        -0.082015      0.011333     -0.202407
O	      4.15354      2.10601      4.03621        -0.026161     -0.090004     -0.232139
O	      6.27461      4.17728      4.06634         0.019420      0.054592     -0.168992
O	      6.22873      2.07148      6.49858        -0.036990      0.027862      0.559849
O	      8.26863      4.22487      6.24933         0.014950     -0.012423      0.031005
O	      2.02769      4.25004      4.27548        -0.168215     -0.136071     -0.085689
O	      4.19132      6.35072      4.15466         0.099814      0.156297      0.025846
O	      4.10218      4.20423      6.27230         0.058568     -0.067428      0.137113
O	      6.22275      6.36562      6.37606        -0.006196     -0.009279     -0.091504
O	      6.25935      4.06718      8.59564        -0.030917     -0.133722      0.152594
O	      8.39519      6.26581      8.52142         0.221056      0.047988     -0.019897
O	      2.06798      6.21363      6.44680         0.043844      0.024930      0.247260
O	      4.19528      8.37936      6.35250        -0.005766     -0.010203     -0.002983
O	      4.12939      6.32059      8.52603        -0.212627      0.121302     -0.138206
O	      6.18265      8.41547      8.41263         0.035990      0.024000      0.084784
O	      6.20855      6.16546     10.58402        -0.027015     -0.073796      0.074764
O	      8.44053      8.42394     10.62898         0.169980      0.023065      0.036991
