# total energy = -256.98674081 eV
 
CRYSTAL
PRIMVEC
0.034156 6.350926 6.355011 
6.311055 -0.001029 6.390951 
4.199142 4.249744 0.007127 
PRIMCOORD
36 1
Li	      6.35360      4.21541      2.31815         0.007731     -0.025440      0.024110
Li	      8.24108      4.33818      4.28788         0.005873      0.058618     -0.045702
Li	      6.26234      2.21945      4.27501        -0.074843      0.032243     -0.017635
Li	      6.39282      6.23220      4.51282         0.023088     -0.005874     -0.036280
Li	      8.21386      6.34265      6.28941         0.064146     -0.006670     -0.068249
Li	      6.33708      4.46614      6.24443        -0.019962     -0.035786      0.002094
Li	      6.34793      8.20568      6.37910        -0.014253     -0.009064      0.003496
Li	      4.46303      6.34230      6.39982        -0.068286     -0.029121      0.031727
Li	      6.29779      6.37251      8.26509        -0.016984     -0.002127      0.064397
Ti	      8.37898      2.20239      6.40106         0.219053      0.014820      0.004844
Ti	      6.39716      2.13785      8.43592        -0.231800     -0.085448      0.276718
Ti	      8.34236      6.33665     10.67959        -0.129727     -0.120512      0.068411
Ti	      4.08512      4.36946      8.32244        -0.212949      0.270675     -0.262119
V	      6.40323      6.39030     12.71947        -0.022629     -0.077856      0.178501
V	      4.31782      8.38385      8.51670        -0.013445      0.072474     -0.044737
V	      8.36246      4.30691      8.48444         0.088292      0.026409      0.104138
V	      4.19905      8.39444      4.32898         0.283190     -0.023048     -0.284318
V	      4.31707      4.19111      4.34830        -0.129643     -0.024167     -0.317973
O	      2.15628      2.15056      2.06171        -0.361028      0.024828     -0.260290
O	      4.19818      4.29580      2.14322         0.096393      0.079720     -0.039656
O	      4.20338      2.20884      4.10980        -0.002239     -0.107243      0.410524
O	      6.19615      4.24791      4.27392         0.075273     -0.009584      0.040216
O	      6.35817      2.12654      6.44014         0.291532      0.179650      0.172695
O	      8.45754      4.13854      6.37237        -0.066089     -0.187587     -0.035316
O	      2.15048      4.35371      4.23054        -0.045834      0.203261      0.101426
O	      4.12559      6.26579      4.15191        -0.032633      0.035290     -0.021965
O	      4.20435      4.24378      6.48864         0.000309     -0.012607      0.223814
O	      6.34486      6.34536      6.38641        -0.000023     -0.031368     -0.009754
O	      6.22963      4.09735      8.57398        -0.034019     -0.082125     -0.080094
O	      8.52204      6.45507      8.60779         0.061164     -0.014192      0.020632
O	      2.17993      6.53993      6.23420         0.036398      0.151958     -0.223520
O	      4.21620      8.52182      6.45343        -0.226707     -0.027640     -0.220734
O	      4.22128      6.24223      8.52734        -0.029238     -0.263725     -0.028094
O	      6.37456      8.49044      8.47728         0.310675     -0.002897      0.025679
O	      6.43181      6.27127     10.63133         0.239341      0.041292      0.017181
O	      8.40181      8.37275     10.62054        -0.070124     -0.007158      0.225832
