# total energy = -237.80281130 eV
 
CRYSTAL
PRIMVEC
-0.011860 6.414852 6.216575 
6.413552 0.003853 6.202285 
4.268808 4.259874 0.009124 
PRIMCOORD
36 1
Li	      4.26023      2.15193      2.07451        -0.001668     -0.015448     -0.061505
Li	      6.37403      2.13895      4.14556         0.066561     -0.003503     -0.043177
Li	      2.06659      4.31541      2.28913         0.023561     -0.012590     -0.094993
Li	      2.12124      2.27631      4.25151        -0.022939     -0.053113      0.037650
Li	      8.39425      6.53371      6.25549        -0.031238      0.059517      0.012590
Li	      6.30455      4.47888      6.24030         0.019416      0.006371     -0.039946
Li	      0.16012      4.26065      4.11898        -0.072723      0.000492      0.054039
Li	      2.16968      6.18289      4.10103         0.011450      0.095631      0.028378
Li	      6.56699      6.32239      8.14722         0.065907     -0.026973      0.101037
Ti	     10.61266     10.62929     12.36384        -0.041463     -0.229363     -0.157347
Ti	      8.48642      8.52361     12.31002         0.129700     -0.022275     -0.420658
Ti	      6.34719      4.19435      2.17125        -0.081185     -0.198595      0.092660
Ti	      4.30300      0.18634      4.04350         0.041742      0.138119     -0.078603
Ti	     10.58948      6.53843      8.44123        -0.048285      0.006574      0.215810
Co	      8.56990      8.49529      8.30263        -0.174241      0.059960      0.285106
Cu	      4.14354      4.12358      4.24039        -0.148859     -0.045050      0.063012
Cu	      2.22213      4.13543      6.13098        -0.039750      0.053075      0.258960
Ni	      4.38061      6.35845      6.14763        -0.047027      0.116083      0.105005
O	      2.00758      1.99909      1.93526        -0.102627     -0.015635      0.089155
O	      4.38862      4.29938      1.93751         0.041185      0.023407      0.071906
O	      4.32497      1.98617      4.14177         0.015541     -0.162875     -0.045475
O	      6.59061      4.25399      4.04289        -0.059021      0.036547     -0.136363
O	      6.53005      1.96152      6.23622        -0.020151      0.016865      0.093390
O	      8.66322      4.15957      6.12469         0.039300     -0.001288     -0.045969
O	      2.09450      4.25867      4.23059         0.163269      0.000942     -0.355756
O	      4.27202      6.41600      4.08405         0.014195     -0.009810     -0.469428
O	      4.36836      4.37389      6.32926         0.061723     -0.102362     -0.298255
O	      6.35183      6.43793      6.24825         0.184335     -0.282992      0.068303
O	      6.45728      4.12691      8.28464        -0.225571     -0.152553     -0.022368
O	      8.70858      6.37587      8.27821         0.303410     -0.115142      0.058261
O	      2.05783      6.52659      6.21971        -0.054357      0.205099      0.029112
O	      4.05285      8.65956      6.25022        -0.114094      0.173003      0.011513
O	      4.12663      6.45019      8.32572        -0.043088      0.216771      0.147599
O	      6.37953      8.73631      8.18814         0.251157      0.276636      0.119722
O	      6.27850      6.41979     10.43620        -0.081379     -0.014650      0.049928
O	      8.48972      8.64220     10.42316        -0.022783     -0.020874      0.276708
