# total energy = -238.86180159 eV
 
CRYSTAL
PRIMVEC
-0.026089 6.574623 6.204320 
6.143935 -0.009269 6.189495 
4.096834 4.374157 -0.007718 
PRIMCOORD
36 1
Li	      4.09279      8.68512      8.27745         0.060015     -0.041622     -0.023372
Li	      4.07371      6.58567     10.29580        -0.008890      0.033026     -0.011867
Li	      8.15732      4.42973      8.30942        -0.031619      0.043336      0.018289
Li	      4.06469      4.38929      4.24371         0.009238     -0.059491     -0.014784
Li	      5.98322      4.40350      6.20604         0.047547      0.052524      0.003886
Li	      8.22604      6.57711     10.27614        -0.023997      0.094478      0.068090
Li	      2.15783      4.37303      6.20376        -0.052172     -0.066457      0.050353
Li	      4.04703      6.22910      6.21028        -0.048701     -0.055253      0.009674
Li	      4.10345      4.36543      8.12682        -0.070020      0.009424      0.028116
Ti	      4.11909      4.39408      0.07180         0.018728     -0.304087      0.046916
Ti	      2.07694      2.28221      0.09530         0.290194      0.081784     -0.100911
Ti	      6.10163      2.29348      3.97644        -0.029980      0.030549     -0.421100
Ti	      6.02832      6.65871      4.19512        -0.023024      0.308312     -0.028554
Ti	      6.07708      6.46970      8.23940        -0.221386     -0.023185      0.108143
Co	      4.08070      2.35437      6.21485        -0.048859      0.049428      0.025223
Cu	      2.14622      6.57735      8.24337         0.140032     -0.114061      0.038479
Cu	     10.09680      6.62419      8.40063        -0.042855     -0.039685      0.023207
Cu	     10.16197      8.74297     10.29668        -0.011522      0.077898      0.020865
O	      2.08862      2.28117      2.01432        -0.138958      0.161809     -0.030470
O	      4.21048      4.35283      1.89367        -0.162886      0.130942     -0.151206
O	      4.13089      2.17357      4.13824        -0.003082     -0.000181     -0.087214
O	      6.18077      4.25151      4.01248        -0.047134     -0.043367      0.255705
O	      6.23537      2.08212      6.04964        -0.044724      0.013313      0.074527
O	      8.29552      4.24905      6.20260         0.112182     -0.135504      0.032266
O	      1.93619      4.13968      4.15711         0.201905     -0.375321      0.004957
O	      4.20740      6.39108      4.19280         0.116905     -0.166796     -0.062540
O	      4.07302      4.28961      6.19789         0.019411      0.012988     -0.028158
O	      6.09275      6.48300      6.15830         0.094954     -0.013013     -0.058394
O	      6.09433      4.57346      8.36377         0.009046      0.069735     -0.300278
O	      8.04777      6.51262      8.22707         0.143896     -0.039949      0.127109
O	      2.00146      6.77035      6.24074        -0.077400      0.147712     -0.236873
O	      4.02109      8.99210      6.09308        -0.167771      0.179209      0.266862
O	      4.15889      6.59112      8.22577         0.296571     -0.058504     -0.023141
O	      6.11800      8.57924      8.33083        -0.003340     -0.211788      0.228476
O	      6.14654      6.79019     10.29596        -0.017453      0.217290      0.051518
O	      8.12582      8.77710     10.46582        -0.284852      0.034504      0.096199
