# total energy = -240.33460945 eV
 
CRYSTAL
PRIMVEC
0.024314 6.301134 6.291943 
6.296561 0.028680 6.287581 
4.190178 4.190374 0.026450 
PRIMCOORD
36 1
Li	      8.36262      8.39878     12.56161        -0.119060     -0.026103     -0.006161
Li	      4.24254      6.29280     10.47180         0.025456     -0.018602      0.012231
Li	      6.30056      2.13785      8.38693         0.014796      0.021210     -0.004297
Li	      4.17912      4.24863      4.20738        -0.063183      0.052734     -0.042331
Li	      6.29264      4.20424      6.33467         0.034181      0.002360      0.074771
Li	      8.40384      6.36701     10.52443        -0.044582      0.080403      0.037358
Li	      4.19538      6.27838      6.31976        -0.032025     -0.017056      0.034109
Li	      4.24476      4.20936      8.38507         0.041264     -0.081667     -0.012865
Li	      6.26848      6.33801      8.41741        -0.002531      0.054738      0.017720
Ti	      2.22164      6.20862      8.36597         0.233529     -0.223159     -0.071127
Ti	      8.37214      4.31023      8.35737        -0.069554      0.265013     -0.136504
Ti	      6.20726      6.22288      4.27801        -0.147356     -0.186450      0.103255
Ti	      4.34705      2.22714      6.19798         0.336688      0.162049     -0.060863
Ti	     10.35156      8.50693     10.54702        -0.321779      0.238534      0.027435
Co	      6.31945      2.17270      4.19641         0.000838      0.037552      0.003652
Ni	      0.04219      6.30779      6.29480        -0.007345      0.080517     -0.080003
Ni	      4.21878      8.38582      8.37082         0.002453     -0.097964      0.006118
Ni	      2.14589      4.21304      6.25212         0.073932      0.017150     -0.025256
O	      2.13111      2.11028      2.18371        -0.169107     -0.023110      0.078059
O	      4.15553      4.15150      2.11716        -0.036027      0.119263      0.149907
O	      4.08418      2.09566      4.25207        -0.068533     -0.018655      0.076233
O	      6.24822      4.32263      4.13939        -0.051301      0.236179     -0.070084
O	      6.23467      2.11034      6.32394        -0.249015      0.099720     -0.057953
O	      8.39199      4.27565      6.43533        -0.055553      0.034642      0.123508
O	      2.08321      4.13035      4.11716        -0.002928     -0.048331     -0.095898
O	      4.31790      6.39648      4.24589         0.142024     -0.004694      0.038034
O	      4.20633      4.07958      6.31018         0.121835     -0.232576     -0.056240
O	      6.38549      6.31385      6.19389         0.059354     -0.102905     -0.107839
O	      6.44866      4.21768      8.51568         0.135059      0.020603      0.030162
O	      8.41091      6.18921      8.29218         0.040661     -0.184510     -0.014607
O	      2.08511      6.28727      6.42968         0.142844      0.087156      0.165592
O	      4.27135      8.42257      6.23827        -0.080737     -0.122120     -0.126594
O	      4.07602      6.33338      8.38315        -0.276588     -0.172275      0.009970
O	      6.26948      8.47198      8.34926         0.117843      0.120838      0.088837
O	      6.32387      6.21375     10.51281        -0.028100     -0.225359     -0.104367
O	      8.52533      8.39472     10.49114         0.302546      0.054874     -0.003960
