# total energy = -46.18916971 eV
 
CRYSTAL
PRIMVEC
-0.000657 2.126781 2.129124 
2.113177 2.169331 -4.301463 
-4.253391 2.165401 -2.166469 
PRIMCOORD
8 1
Li	     -2.15961      4.35845     -2.16610        -0.171334     -0.341383      0.317138
Li	     -0.04626      2.30159     -2.30140        -0.119873      0.013898     -0.005741
Mn	      0.00009      0.00163      0.00064        -0.338168      2.288491     -2.083080
Ni	     -2.19071      2.21237     -0.01873         0.762126      0.163868     -0.363367
O	     -2.21025      4.58031     -4.58494         0.257131     -1.104418      1.305694
O	     -2.32594      2.21340     -2.21037         0.026352     -0.289792      0.467834
O	      0.12121      4.44584     -2.25758        -0.137739     -0.326318      0.168562
O	      0.00541      2.07852      0.11681        -0.278497     -0.404348      0.192960
