# total energy = -240.43728348 eV
 
CRYSTAL
PRIMVEC
0.021527 6.303329 6.293232 
6.303220 -0.008569 6.323388 
4.194319 4.214551 0.002107 
PRIMCOORD
36 1
Li	      6.31818      4.18025      2.20252        -0.041439     -0.028007     -0.056414
Li	      6.30032      2.17548      4.17453         0.045453      0.000644      0.000047
Li	      4.20588      6.32758      2.28214         0.040472     -0.000644     -0.017825
Li	      6.13578      6.27737      4.20945        -0.107207      0.019131      0.060423
Li	      4.25007      4.33832      4.20540         0.004327      0.007473      0.067992
Li	      4.16886      2.15040      6.24046        -0.072428      0.081217     -0.042101
Li	      4.19579      8.22115      4.17542         0.047962     -0.010791      0.027041
Li	      4.23099      6.27898      6.16518         0.030368     -0.024156      0.029657
Li	      8.37907      8.42454      8.42586        -0.083229     -0.028238     -0.065337
Ti	      6.30862      6.34712     12.51460         0.159801     -0.046684     -0.320627
Ti	      8.43740      8.37835     12.53678         0.065874     -0.165436     -0.238204
Ti	      4.24098      2.01551      2.29594         0.113348      0.062457      0.049912
Ti	      2.08577      4.27006      2.27048        -0.110432     -0.011681      0.336137
Ti	      6.13644      4.32254      6.23424        -0.492745      0.218607     -0.141917
Co	      2.18669      4.14788      6.25674        -0.106041     -0.136217      0.154260
Co	      6.29589      6.29232      8.46100         0.103388     -0.003367     -0.340972
Cu	      4.16801      6.29299     10.34203        -0.015657     -0.044899     -0.060499
Ni	      2.23020      6.31605      4.17358        -0.179337     -0.049740      0.078333
O	      2.22404      2.18049      2.01632         0.089023      0.034580      0.029636
O	      4.08633      4.13137      1.97798        -0.066320     -0.039979      0.036696
O	      4.23378      2.17359      4.09835         0.058524     -0.084422     -0.206542
O	      6.28366      4.18153      4.39468         0.098300      0.020220      0.251315
O	      6.42851      2.04548      6.34922         0.000779      0.013595     -0.008575
O	      8.45369      4.11335      6.45335        -0.046835      0.032841      0.161273
O	      2.10655      4.19282      4.16070         0.053437      0.001770     -0.074824
O	      4.16557      6.30275      4.21612         0.322715     -0.059268     -0.018155
O	      4.28967      4.16130      6.36571         0.350200      0.055816     -0.017166
O	      6.33379      6.20201      6.33859        -0.016909     -0.161766      0.115810
O	      6.46226      4.16149      8.29985         0.147861     -0.046901      0.051966
O	      8.39353      6.16822      8.44220        -0.550321     -0.078608     -0.064127
O	      1.98984      6.39992      6.33217        -0.023929      0.173458      0.070450
O	      4.14751      8.55534      6.31478         0.023945      0.026318      0.069596
O	      4.21060      6.42717      8.26901         0.498634      0.024649      0.088059
O	      6.20717      8.42067      8.31096        -0.040853      0.016056     -0.303776
O	      6.39843      6.32263     10.63788        -0.272300      0.053904      0.107325
O	      8.44724      8.38642     10.67053        -0.028431      0.178067      0.191133
