# total energy = -241.60307744 eV
 
CRYSTAL
PRIMVEC
-0.021017 6.271722 6.501167 
6.133315 0.042525 6.438190 
4.132882 4.182233 -0.014970 
PRIMCOORD
36 1
Li	      2.06394      0.04642      2.17074        -0.072146      0.013070     -0.043276
Li	      6.12824      8.36241     10.80094        -0.035357     -0.074414      0.031068
Li	      4.10538      6.26415      2.20028        -0.020617     -0.072195     -0.000655
Li	      8.19972      4.30254      8.58140         0.087206      0.063600      0.050933
Li	      6.15566      6.29582      4.47041        -0.005460      0.041078     -0.034184
Li	      8.08639      6.27363      6.49970         0.164920     -0.072425      0.073991
Li	      8.17231      6.29421     10.74613        -0.023148     -0.011278      0.012327
Li	      6.15820      8.22913      6.41966        -0.051342      0.108285     -0.018225
Li	      6.14508      6.25505      8.47648         0.053312      0.024323      0.059695
Ti	      1.96996      2.03294      0.08239        -0.244761     -0.271335      0.067844
Ti	      4.19152      8.44782      8.63646         0.092444      0.486243     -0.021181
Ti	      8.10274      4.22365      4.26716         0.044504      0.142140     -0.107942
Ti	      0.12690      4.12285      4.25164         0.397946     -0.028121     -0.055948
Ti	      8.12916      8.24547      8.47905        -0.086911     -0.601201      0.114871
Co	      0.03501      6.31892      6.50039         0.017095     -0.031573     -0.077830
Co	      4.10200      4.26647      4.30707         0.009799      0.001186     -0.201598
Cu	      6.09851      4.30247      6.47407        -0.051906     -0.104996     -0.059452
Cu	      4.18463      6.22435      6.43185        -0.114968     -0.057835     -0.133153
O	      2.19941      2.12917      1.94915         0.016361      0.010257     -0.121067
O	      4.14890      4.06077      2.15691        -0.059534     -0.153979      0.245466
O	      4.11654      2.04773      4.11669        -0.019632     -0.089778     -0.081673
O	      6.21522      4.20555      4.22870         0.311149      0.008496      0.062149
O	      6.23372      2.17576      6.45667         0.257116     -0.065787     -0.047070
O	      8.28664      4.15007      6.27231         0.409020      0.061070      0.083548
O	      1.99568      4.20094      4.31047        -0.318593     -0.068478      0.024380
O	      4.11854      6.37249      4.25333         0.026723      0.226940      0.019682
O	      4.01990      4.17458      6.62256        -0.093736     -0.159692      0.039129
O	      6.14325      6.27370      6.47372         0.062451     -0.170268      0.025610
O	      5.98822      4.23650      8.82547         0.034858     -0.024963      0.125928
O	      8.17782      6.43521      8.62101        -0.027301      0.588057     -0.111614
O	      2.10431      6.43507      6.44006        -0.506756      0.189697      0.097382
O	      4.08232      8.39788      6.54543        -0.049217      0.159676     -0.018738
O	      4.08999      6.33408      8.83071        -0.045151     -0.061198      0.157812
O	      6.14813      8.39381      8.61980         0.016830     -0.040170     -0.031864
O	      6.03910      6.15508     10.87154        -0.216629     -0.030020     -0.148105
O	      8.21618      8.48077     10.78795         0.041431      0.065585      0.021762
