# total energy = -243.16087863 eV
 
CRYSTAL
PRIMVEC
0.024633 6.245218 6.336589 
6.296172 0.018944 6.342564 
4.196959 4.166964 0.012986 
PRIMCOORD
36 1
Li	      4.18624      4.21476      0.11632         0.043512      0.067773      0.115722
Li	      8.33318      2.11538      6.41670        -0.126160     -0.019769      0.092512
Li	      4.20346      2.16488      2.06733         0.032130      0.105340     -0.075270
Li	      6.26877      2.13474      4.30502        -0.058520      0.037614      0.112344
Li	      8.45359      4.17067      8.37344         0.058202      0.036692     -0.123813
Li	      4.25544      4.13610      4.25405         0.106413     -0.039473      0.008534
Li	      6.22805      4.09580      6.37221        -0.134737     -0.047123      0.032671
Li	      4.18286      6.16962      6.39529        -0.045077     -0.142330      0.033207
Li	      4.21265      4.19585      8.35205        -0.007409      0.006326     -0.098036
Ti	      2.13794      6.26887      4.28253        -0.013992      0.050987      0.238535
Ti	      8.34500      4.16678      4.35849        -0.254076      0.118995      0.281908
Ti	      2.14786      2.09413      4.09806         0.185121     -0.153984     -0.440534
Ti	      4.20011      8.33476      4.31698        -0.005428     -0.013940      0.214046
Ti	      6.26316      6.30300      8.31475        -0.162344      0.071352     -0.170430
Co	      6.29658      2.01198      8.32001        -0.073844      0.051958     -0.032284
Co	      4.30221      2.15934      6.37345         0.016185      0.040354      0.059457
Co	      2.17569      4.18546      6.38552         0.062586      0.015257      0.101226
Cu	      6.24237     10.33590      8.39944         0.206869     -0.116372     -0.047568
O	      2.13840      2.11474      2.26430         0.053402      0.146310      0.298881
O	      4.29425      4.21843      2.15013        -0.165611     -0.048722     -0.011917
O	      4.07519      2.00103      4.20503        -0.144884     -0.073708      0.054525
O	      6.41236      4.28199      4.28656         0.214193      0.137833      0.134941
O	      6.27925      2.11403      6.36723         0.009361      0.014960     -0.007368
O	      8.42642      4.19404      6.19816         0.082060     -0.009652     -0.280424
O	      2.07207      4.15885      4.19639        -0.126646      0.026598      0.069371
O	      4.20316      6.30492      4.20287        -0.033370      0.172924     -0.063226
O	      4.14536      4.14127      6.31488        -0.024946     -0.018743     -0.004734
O	      6.28743      6.22446      6.38774         0.006902     -0.066174      0.192784
O	      6.32063      4.27905      8.59742        -0.000084      0.059478      0.090824
O	      8.27833      6.25982      8.62279        -0.034036      0.016610      0.061009
O	      2.12048      6.26381      6.14189         0.032303      0.046946     -0.517852
O	      4.26646      8.33162      6.17396         0.059755     -0.000930     -0.343007
O	      4.32379      6.24639      8.57770         0.136736     -0.030364      0.036560
O	      6.30453      8.21826      8.50108        -0.024657     -0.342119     -0.064549
O	      6.31779      6.22969     10.50055         0.000128     -0.099232      0.010926
O	      8.47092      8.34595     10.58852         0.129965     -0.001675      0.041029
