# total energy = -246.91681712 eV
 
CRYSTAL
PRIMVEC
-0.000568 6.328041 6.310422 
6.264159 0.028983 6.280790 
4.190739 4.213288 0.005112 
PRIMCOORD
36 1
Li	      0.03250      6.32752      6.28140         0.015806     -0.013369     -0.068958
Li	      8.35284      2.13210      6.28220         0.005155      0.039515      0.009796
Li	      2.08530      6.35099      8.35890         0.015065      0.008408     -0.012672
Li	      4.17053      2.13066      2.08454        -0.014193      0.028142     -0.021210
Li	      6.26207      2.09546      4.25267        -0.005245     -0.077912      0.058313
Li	      2.13080      2.11454      4.21819         0.063304     -0.002142      0.004977
Li	      8.33682      6.27062      6.26601        -0.032282     -0.032595      0.012021
Li	      2.05686      6.35099      4.27522        -0.089496     -0.011120      0.022474
Li	      6.24115      8.44972      6.31861        -0.006413      0.000303      0.043658
Ti	      0.11303      2.06889      1.97565         0.257841     -0.055922     -0.442911
Ti	      4.28017      4.11586      4.23233         0.296678     -0.238561     -0.077940
Ti	      0.08929      4.25356      4.29903         0.099328      0.425453      0.237413
Ti	      4.07995      6.36723      6.26370        -0.223539      0.037176      0.115438
Ti	      8.20990      8.43632      8.42659        -0.341142     -0.058477      0.006103
Co	      8.33875      4.29969      4.24495         0.061310      0.026502      0.048277
Co	      8.38849      4.24869      8.31023         0.065949      0.026670     -0.130314
Co	      6.33798      4.24175      6.26226         0.114138     -0.053055      0.181995
Co	      6.29456      6.37137      8.37209        -0.071010     -0.029690      0.022960
O	      1.96763      2.15707      2.10816        -0.339626     -0.042041     -0.019271
O	      4.20917      4.33328      2.22400        -0.123715      0.165829      0.100241
O	      4.16349      2.26995      4.18244         0.007879      0.200308      0.013893
O	      6.16704      4.23401      4.17290        -0.463085      0.018616      0.050765
O	      6.27500      2.13560      6.40482         0.064617     -0.043824      0.398829
O	      8.33495      4.25741      6.28301        -0.031255      0.005152     -0.054670
O	      2.04899      4.23536      4.15437        -0.150577      0.000985      0.015495
O	      4.18052      6.33959      4.20967         0.032920      0.010944      0.062842
O	      4.17707      4.24220      6.30476        -0.045757      0.071624     -0.021278
O	      6.13141      6.28223      6.34034        -0.120916      0.103617      0.009032
O	      6.18673      4.15830      8.47352         0.092464     -0.107225     -0.043996
O	      8.44706      6.42878      8.38759        -0.016792      0.241148      0.016631
O	      2.23738      6.33037      6.30674         0.335776      0.014221     -0.021612
O	      4.20514      8.39316      6.23168        -0.005846     -0.117713     -0.269314
O	      4.18016      6.24559      8.38078         0.019740     -0.138484     -0.153592
O	      6.37724      8.44558      8.41941         0.364197     -0.060441      0.000890
O	      6.24349      6.23552     10.46940         0.145994     -0.425781     -0.031023
O	      8.48554      8.45199     10.36192         0.022730      0.083738     -0.063282
