# total energy = -237.52912371 eV
 
CRYSTAL
PRIMVEC
0.045778 6.368450 6.288884 
6.296101 0.043320 6.291263 
4.197214 4.246969 0.029080 
PRIMCOORD
36 1
Li	      8.22368      2.19203      6.28877         0.015786      0.015736     -0.005813
Li	      6.28407      4.25465      2.15528         0.012688     -0.041716      0.032995
Li	      6.28152      2.22020      4.38995        -0.026773      0.050408     -0.021131
Li	      6.29470      2.17762      8.22382        -0.003914     -0.016070      0.042041
Li	      4.23633      4.23246      4.18375        -0.007380     -0.006498     -0.052303
Li	      4.40400      2.19311      6.25131        -0.079646     -0.014979     -0.061366
Li	      6.26603      4.04358      6.31661        -0.023336     -0.024546     -0.017340
Li	      6.32011      4.30529     10.46577         0.001445      0.020541      0.045384
Li	      6.28832      6.33866      8.41900         0.021813      0.001261     -0.030050
Ti	      8.31779      6.58683     10.44408        -0.141584      0.248029     -0.164602
Ti	      4.31263      8.50791      8.42227         0.238977     -0.015590      0.078338
Ti	      8.29826      4.30258      8.24308        -0.310252      0.156366     -0.197006
Ti	      6.19711      6.25164      4.23494        -0.061206     -0.365207      0.061682
Ti	      2.25374      4.24335      6.26746         0.234263     -0.090778      0.113411
Cu	      4.37619      4.27854      8.38210         0.103309     -0.049356      0.022831
Ni	      6.29322      0.15713      6.31424         0.045760     -0.135229     -0.030914
Ni	      8.45865     10.60400     10.53705         0.054634     -0.049722      0.062523
Ni	      4.22602      6.40326      6.33725        -0.009876      0.025110      0.010896
O	      2.14162      2.24391      2.23354         0.025730      0.000503      0.093527
O	      4.10276      4.10722      2.11406         0.002416     -0.086390      0.144038
O	      4.08870      2.08677      4.10385        -0.022998      0.166233     -0.070391
O	      6.33014      4.40784      4.22470        -0.168738      0.298214      0.038910
O	      6.30388      2.12862      6.30820         0.023655      0.079718      0.008896
O	      8.43344      4.27717      6.36420        -0.154993     -0.051421      0.257953
O	      2.11701      4.24501      4.26668         0.009750     -0.017072     -0.002710
O	      4.26989      6.37156      4.25679         0.056308      0.001714     -0.090164
O	      4.11598      4.30875      6.30223        -0.142218     -0.101534      0.050459
O	      6.30703      6.54012      6.20165         0.102042      0.117932     -0.096512
O	      6.47413      4.29230      8.39027         0.285259      0.001432     -0.028563
O	      8.45385      6.21233      8.56276        -0.021609     -0.152928      0.050064
O	      2.15899      6.26286      6.15504        -0.035484     -0.031263     -0.032788
O	      4.31547      8.49984      6.42443         0.032055      0.075731      0.031794
O	      4.20140      6.55310      8.40362        -0.027692      0.139656      0.012876
O	      6.20581      8.55092      8.28912        -0.237770      0.016639     -0.034361
O	      6.43468      6.42443     10.51035         0.247521      0.002478     -0.154065
O	      8.46319      8.44275     10.51916        -0.037942     -0.167404     -0.068541
