# total energy = -237.09799347 eV
 
CRYSTAL
PRIMVEC
-0.032607 6.269367 6.311546 
6.243881 -0.025894 6.305307 
4.152427 4.165444 -0.007374 
PRIMCOORD
36 1
Li	      8.26383      8.31266     12.59575         0.042263     -0.005112      0.049929
Li	      6.24025     10.38507      8.46673        -0.003305     -0.003401     -0.009087
Li	      4.15855      8.31689      8.43439         0.019555     -0.042898     -0.049041
Li	      6.19581      2.09865      4.33048        -0.009880      0.000327      0.010687
Li	      6.24389      6.15089      4.18772        -0.044295      0.056561      0.038094
Li	      4.31916      4.06722      4.20096        -0.007210     -0.009312     -0.006118
Li	      4.21013      2.08702      6.26999        -0.040350      0.027907     -0.014854
Li	     10.30911      8.36053     10.54816         0.036218     -0.064061      0.040831
Li	      6.19949      6.27719      8.46117        -0.048378     -0.014499     -0.045882
Ti	      4.15535      6.21755      2.11840         0.076522     -0.017632      0.225357
Ti	      4.15847      0.15743      4.28492        -0.134902      0.262789     -0.135852
Ti	      2.06610      4.14241      2.24042        -0.004097     -0.012767      0.182029
Ti	      6.18436      8.27155      6.23742        -0.093190     -0.346588      0.067686
Ti	      8.20897      8.40268      8.51645        -0.244612      0.153316     -0.123619
Cu	      8.21342      6.29634     10.60669         0.013462     -0.009527      0.049140
Cu	      4.09667      6.29401      6.19623         0.096092      0.069628      0.053847
Ni	      6.22775      6.26821     12.58797        -0.042507     -0.072013      0.087804
Ni	      6.20920      4.16470      6.24215        -0.102476      0.169795      0.036903
O	      1.98931      2.26184      2.05235        -0.080747      0.037477      0.072404
O	      4.01520      4.23947      2.05699        -0.073646      0.061325      0.080173
O	      4.17264      1.98065      4.16433         0.010391     -0.271061      0.026629
O	      6.34788      4.13836      4.22797         0.176949     -0.007927     -0.130973
O	      6.26313      2.07258      6.42981         0.016795     -0.036341      0.016443
O	      8.29466      4.17053      6.29496         0.059313     -0.030236     -0.008130
O	      2.07479      4.10802      4.12294         0.002231      0.054699     -0.270262
O	      4.16399      6.24438      3.97337        -0.146178     -0.003660     -0.501038
O	      4.08503      4.21041      6.37292        -0.069865     -0.244933      0.068072
O	      6.12018      6.34508      6.26481         0.328211      0.178053     -0.014776
O	      6.23995      4.11088      8.35516         0.022421     -0.086143      0.080771
O	      8.37362      6.21247      8.30203         0.129420      0.009118      0.040962
O	      2.09235      6.11854      6.38379        -0.320214      0.062537     -0.081462
O	      4.27018      8.34889      6.30047         0.110857      0.272949      0.001607
O	      4.13810      6.12966      8.55277         0.014527     -0.140379      0.306704
O	      6.34082      8.28449      8.26048         0.240292      0.027420      0.024735
O	      6.06412      6.22344     10.56690         0.083849      0.048518     -0.112680
O	      8.28007      8.38148     10.36836        -0.013514     -0.073928     -0.057032
