# total energy = -235.07810091 eV
 
CRYSTAL
PRIMVEC
-0.080411 6.193324 6.517269 
6.477513 -0.085883 6.526075 
4.280012 4.098314 -0.020002 
PRIMCOORD
36 1
Li	      4.10905      4.15050      0.21976        -0.025968     -0.003427     -0.013939
Li	      6.15812      4.20708      2.14410        -0.005783     -0.075651     -0.025525
Li	      4.08020      2.21961      2.17764         0.010574     -0.090284     -0.022866
Li	      0.18644      1.86103      2.08755         0.003566      0.003258     -0.074909
Li	      2.38753      3.96545      2.07740         0.012183      0.001575     -0.034796
Li	      2.28555      1.91267      3.99544         0.021943     -0.023547     -0.002556
Li	      4.29408      4.11078      3.96992        -0.029310      0.067382     -0.053930
Li	      8.61696      5.93862      6.52010        -0.033783      0.062153      0.034696
Li	      6.56431      4.01541      6.48381        -0.047520      0.040227     -0.008974
Ti	      2.16683      6.14460      4.41484         0.126376     -0.119688      0.183387
Ti	      6.16483      2.17187      4.50283        -0.251898      0.233231      0.201018
Ti	      0.08093      4.05910      4.37645         0.166642     -0.170665     -0.028241
Ti	      4.23906      4.10935      8.64259        -0.041878      0.096190     -0.223536
Ti	      6.38768      6.13483      8.65457        -0.080256      0.065856     -0.155585
Cu	      2.07395      2.12527      0.16275        -0.075318     -0.034192     -0.113355
Cu	      8.50866      4.05274      4.49545        -0.073581      0.026442      0.001694
Cu	      6.36580      8.18021      6.52192         0.090105      0.061229     -0.070321
Cu	      4.32220      6.19149      6.52489         0.004713     -0.111931     -0.002935
O	      2.15895      2.01801      2.06389         0.000755     -0.036674      0.146179
O	      4.28511      4.07755      2.08926        -0.022017     -0.041044     -0.041858
O	      4.33240      1.99030      4.39472         0.231850      0.208260      0.017413
O	      6.33288      3.98906      4.38213        -0.188372     -0.243735      0.018938
O	      6.37043      1.96898      6.31196        -0.019691     -0.002717     -0.160993
O	      8.56148      3.96506      6.41493         0.016319      0.069508      0.228027
O	      1.98636      4.21394      4.14711        -0.123708      0.047315     -0.022504
O	      4.09820      6.26572      4.11825        -0.086826      0.111998     -0.042601
O	      4.13358      4.22407      6.81012        -0.053608     -0.205242      0.276601
O	      6.33461      6.14457      6.79934         0.152141      0.051625      0.185186
O	      6.23503      4.16961      8.80894        -0.023726      0.068747      0.010671
O	      8.39314      6.24374      8.75561        -0.033494      0.052006      0.071444
O	      2.26015      6.18731      6.30042        -0.138734     -0.052075     -0.158312
O	      4.35660      8.16157      6.22819         0.084541      0.174042      0.035476
O	      4.43074      6.05805      9.03349         0.096300     -0.028074     -0.063613
O	      6.55111      8.09518      9.01086         0.073970     -0.015013      0.084290
O	      6.63734      6.03303     10.80456         0.169223      0.029780     -0.073834
O	      8.68643      8.07404     10.83431         0.094271     -0.216863     -0.099837
