# total energy = -91.34192414 eV
 
CRYSTAL
PRIMVEC
0.019970 2.201299 2.036167 
6.108690 6.720554 -4.120839 
-4.065989 2.213650 -2.085980 
PRIMCOORD
16 1
Li	      0.14669      6.86043     -2.16698         0.016590     -0.006602     -0.012808
Li	      2.00071      6.48027     -4.05896        -0.009495     -0.013749     -0.007992
Li	      3.87298      8.61499     -3.96114        -0.026793      0.007551      0.007101
Li	      2.12783      4.72723     -2.20467        -0.008998     -0.002582     -0.001248
Mn	      6.07319      8.86454     -2.07019         0.023432      0.009036      0.001483
Mn	     -1.97319      4.51348     -2.10250         0.059027     -0.001520     -0.012528
Ni	      0.01916      4.50271     -0.01933         0.004299     -0.005718      0.015956
Ni	      4.05491      6.57115     -2.07325         0.086980      0.020745     -0.042816
O	      4.15058      6.70236     -4.07148         0.025235      0.040873     -0.110711
O	      0.02390      6.69268     -4.30877         0.018021     -0.060896      0.188667
O	      1.98756      8.94655     -4.29723         0.097049      0.017223     -0.019370
O	     -2.08155      4.68225     -0.11133        -0.082796      0.041837     -0.043842
O	     -0.10779      4.34909     -2.03248        -0.111339      0.079313     -0.111388
O	      2.18857      6.67121     -2.08971        -0.225712      0.006881      0.008399
O	      0.10005      2.36378      0.05007         0.040728     -0.067431      0.077934
O	      2.07304      4.25524      0.09588         0.093772     -0.064961      0.063164
