# total energy = -46.03794072 eV
 
CRYSTAL
PRIMVEC
-0.000660 2.137106 2.139460 
2.123436 2.179862 -4.322343 
-4.274039 2.175913 -2.176986 
PRIMCOORD
8 1
Li	     -2.18063      4.40087     -2.18719        -0.201451     -0.387130      0.368616
Li	     -0.04671      2.32400     -2.32379        -0.130285      0.015653     -0.011510
Mn	      0.00009      0.00165      0.00065        -0.369147      2.630854     -2.425428
Ni	     -2.21203      2.23390     -0.01891         0.866258      0.183026     -0.399366
O	     -2.23177      4.62489     -4.62956         0.294788     -1.308621      1.540103
O	     -2.34858      2.23494     -2.23188         0.030253     -0.356040      0.540200
O	      0.12239      4.48911     -2.27956        -0.178575     -0.356890      0.178652
O	      0.00546      2.09876      0.11795        -0.311841     -0.420852      0.208734
