# total energy = -243.09549034 eV
 
CRYSTAL
PRIMVEC
-0.007916 6.198681 6.264137 
6.248379 0.008591 6.247788 
4.195597 4.151964 -0.024178 
PRIMCOORD
36 1
Li	      4.13355     10.25863      6.21329        -0.025271     -0.033091     -0.083021
Li	      8.33877      4.12533      4.20747        -0.032109     -0.004687      0.043563
Li	      6.30532      8.28362     10.43537         0.047481      0.009283      0.019631
Li	      6.24252      2.12392      8.31772        -0.001657      0.084293     -0.009747
Li	      4.18043      4.12340      4.18524        -0.009939     -0.040756      0.042232
Li	      6.29202      4.11687      6.24870         0.036734      0.014770     -0.018934
Li	      4.17293      8.32959      4.21528        -0.003100      0.047583     -0.011354
Li	      6.22195      8.28977      6.22270        -0.031993      0.002751     -0.029295
Li	      4.19301      4.12156      8.33011         0.028531      0.048182      0.006904
Ti	      6.10993      4.02327      2.09298        -0.219783     -0.223079      0.120946
Ti	      8.39352      6.31587     10.44555        -0.060897      0.462820      0.055994
Ti	      2.04382      2.12760      4.15915         0.125827      0.036303      0.006518
Ti	      4.32928      2.15263      6.24139         0.385808      0.132555     -0.174029
Ti	      6.13424      6.14159      8.35728        -0.122500     -0.311916      0.135115
Fe	      4.17493      6.20807      6.23180         0.008149     -0.270436      0.047935
Co	      2.13690      4.14061      2.03896         0.023184     -0.023566      0.039427
Cu	      4.26757      8.30283      8.27042         0.108900      0.021105     -0.038274
Ni	      8.33697      2.16064      6.23840        -0.224353      0.034059      0.005385
O	      2.02650      1.97173      2.19077        -0.017481      0.053567      0.081380
O	      4.26531      4.19862      2.06422         0.146848     -0.046259      0.009814
O	      4.00301      2.06014      4.32839        -0.076894      0.012776      0.110018
O	      6.25797      4.25402      3.99591        -0.053698      0.026313     -0.101149
O	      6.18733      2.10955      6.22708        -0.377343      0.002710      0.040513
O	      8.37189      4.24118      6.26883        -0.003190      0.187701     -0.050358
O	      2.08069      4.07131      4.13381        -0.015562     -0.057035      0.017196
O	      4.15041      6.18508      4.10987        -0.046964     -0.006056     -0.110902
O	      4.19814      4.05566      6.24742        -0.012285     -0.238107     -0.001744
O	      6.32357      6.23378      6.22453         0.098345      0.016305      0.045012
O	      6.29945      4.29707      8.30854         0.020249      0.354149      0.029075
O	      8.29666      6.26657      8.35094         0.026417     -0.050306     -0.051012
O	      2.02879      6.19657      6.23098        -0.117924     -0.088928     -0.037576
O	      4.08544      8.19886      6.18529         0.183146      0.202804      0.030601
O	      4.22837      6.13910      8.39761         0.077149      0.032129      0.096504
O	      6.37580      8.33786      8.32812         0.040454      0.073452     -0.003510
O	      6.40465      6.22972     10.26496         0.078215     -0.013187     -0.119737
O	      8.35523      8.14963     10.45827         0.017507     -0.448202     -0.143120
