# total energy = -242.62941988 eV
 
CRYSTAL
PRIMVEC
0.018055 6.122077 6.824679 
6.129477 0.033357 6.810140 
4.107665 4.092047 0.001023 
PRIMCOORD
36 1
Li	     10.15799      4.11272      6.87610        -0.003018      0.001278      0.009221
Li	      8.24966      8.28962     13.42011         0.004877      0.026730      0.020660
Li	      8.25331      4.03742      4.83037         0.008982      0.040744      0.077068
Li	      4.08556      4.12292      4.47396         0.008204     -0.022233      0.006441
Li	      4.11490      1.99460      6.74509         0.006436      0.051841     -0.063946
Li	      6.20878      4.09352      6.98816        -0.067091      0.000667      0.010154
Li	      6.15496      4.12544     11.23706        -0.124146      0.020671      0.001146
Li	      4.22524      4.13053      9.04784        -0.072252     -0.024163      0.017860
Li	      6.07825      6.07652      9.26933        -0.016916      0.030956      0.001586
Ti	      6.06839      2.10119      4.77239         0.029588     -0.077978      0.610734
Ti	      8.19181      6.17187     11.23903        -0.002896      0.113450     -0.177529
Ti	      2.08219      2.01097      4.53594        -0.017947     -0.082399     -0.005577
Ti	      6.16165      8.17080      6.93549         0.050287     -0.006591      0.027028
Ti	      4.09795      6.13896      6.89724         0.049756     -0.040859      0.066640
Fe	      8.15418      4.10790      8.81316         0.037291      0.077668      0.054397
Co	      6.08271      4.11528      2.26614         0.018390     -0.054258      0.050368
Cu	      4.16011      2.09037      2.41843         0.091235     -0.056178      0.072206
Cu	      6.07208      2.15603      8.86541        -0.010756     -0.026211      0.003401
O	      2.08132      2.11966      2.65347         0.026233     -0.008005     -0.037260
O	      4.06531      4.17893      2.23490         0.054892      0.016744      0.039205
O	      4.08823      2.02884      4.68784         0.034323      0.017649      0.070316
O	      6.15963      4.08735      4.45559        -0.008283      0.150107     -0.005234
O	      6.16034      2.09894      6.55822        -0.106379      0.039520     -0.453936
O	      8.19583      4.10579      6.93418         0.047686     -0.052485     -0.140059
O	      2.06731      4.06644      4.70845         0.050330     -0.051906     -0.064750
O	      4.11301      6.11261      4.77419         0.023416     -0.001961      0.021182
O	      4.00697      4.17548      6.83491        -0.035389      0.012805      0.002579
O	      6.09415      6.19193      6.64958        -0.037185      0.074735     -0.080324
O	      6.22525      4.12510      9.07153        -0.091749     -0.106714     -0.023283
O	      8.15663      6.06921      9.39592         0.056859      0.000595      0.109023
O	      2.10415      6.06512      6.66348         0.050484     -0.038107      0.044422
O	      4.21163      8.08557      6.69318         0.007580     -0.017927     -0.047439
O	      4.03573      6.17290      8.78238        -0.003599     -0.004122     -0.133784
O	      6.20088      8.16168      8.81565        -0.038754      0.051118     -0.105606
O	      6.22470      6.26574     11.34437        -0.028095      0.035961     -0.028231
O	      8.10125      8.10662     11.33663         0.007606     -0.091140      0.051321
