# total energy = -242.40880950 eV
 
CRYSTAL
PRIMVEC
0.013796 6.255211 6.308210 
6.272903 0.011557 6.310271 
4.194836 4.184292 -0.005116 
PRIMCOORD
36 1
Li	      2.11691      2.11986      0.04576         0.013795      0.012404      0.003017
Li	      4.20682      8.32221      8.38496        -0.030232     -0.016164      0.016819
Li	      6.24979      2.11990      4.24144         0.011585      0.019544      0.027375
Li	      8.18448      4.19864      8.35253         0.025518      0.017745     -0.029730
Li	      8.39672      6.27284      6.33020        -0.010279      0.020939      0.012001
Li	      6.27471      4.11853      6.40553        -0.035962     -0.026907     -0.056325
Li	      6.30981      4.19532     10.41600        -0.023812      0.002868      0.026504
Li	      4.20654      6.29584      6.33924         0.013569     -0.018290      0.032493
Li	      6.29864      6.09601      8.34425        -0.028921      0.017122     -0.034253
Ti	     10.39890      4.26505      6.39502        -0.190665      0.130432      0.034478
Ti	      8.38627      6.37468     10.44574        -0.018686      0.190162     -0.290362
Ti	      4.25059      6.20004     10.46565         0.003604     -0.103900     -0.171543
Ti	      2.08518      2.12717      4.15996         0.015661     -0.030532     -0.028246
Ti	      6.29303      8.28905      6.43952         0.075501     -0.200419      0.043684
Fe	      4.22859      4.13507      4.18974         0.026529     -0.041888     -0.073401
Co	      4.26600      4.16802      8.36732        -0.014445      0.086140      0.044068
Ni	      2.14810      6.28572      8.39145         0.053815      0.000017     -0.019505
Ni	      6.27752      2.16762      8.37743        -0.071723     -0.020792      0.000839
O	      2.07713      2.08163      2.23810         0.071972      0.123747      0.151111
O	      4.25370      4.21865      2.05683        -0.053635     -0.118164     -0.153327
O	      4.08056      1.98214      4.19912        -0.054427     -0.098940     -0.033278
O	      6.38469      4.26163      4.21219         0.056556      0.042340      0.058264
O	      6.28834      1.96335      6.33512        -0.009912     -0.219593     -0.100399
O	      8.49838      4.15745      6.19435         0.173895      0.029546      0.013707
O	      2.07454      4.16659      4.26508        -0.047741     -0.007485     -0.016423
O	      4.18102      6.30177      4.19054         0.035837      0.045948      0.054313
O	      4.05105      4.18335      6.22155        -0.137786     -0.017746      0.230674
O	      6.24387      6.39000      6.18251         0.012795      0.223916     -0.084401
O	      6.24511      4.15520      8.36251        -0.642728      0.139844      0.011775
O	      8.35470      6.25498      8.54886        -0.004584      0.006265      0.207557
O	      2.05505      6.20530      6.22178        -0.013256     -0.029403     -0.063344
O	      4.33972      8.48583      6.34795         0.168179      0.053014      0.064156
O	      4.19030      6.25131      8.52586         0.150333     -0.102335      0.148073
O	      6.33268      8.40427      8.31802         0.509010     -0.086075     -0.137862
O	      6.29420      6.29293     10.60163        -0.048395     -0.003022      0.055663
O	      8.39758      8.35782     10.55508         0.019036     -0.020335      0.055829
