# total energy = -246.12825884 eV
 
CRYSTAL
PRIMVEC
0.037231 6.287090 6.264264 
6.391706 0.005547 6.295745 
4.258932 4.209917 0.006057 
PRIMCOORD
36 1
Li	     10.54892      4.23419      6.35969        -0.024660      0.014318     -0.035363
Li	      6.36404      4.22190      2.10056        -0.020275      0.052105      0.017340
Li	     10.56539      6.27334      8.30547        -0.083165     -0.073363     -0.054677
Li	      8.55563      4.28584      8.24442         0.018472     -0.044551     -0.039220
Li	      4.27018      4.16295      4.16276        -0.026144      0.055983     -0.005917
Li	      8.56657      6.22202      6.37574         0.014477     -0.049594      0.031627
Li	      6.42384      4.16241      6.34350         0.042127     -0.021146      0.010966
Li	      4.29390      6.28254      6.35817        -0.013584      0.014849      0.030181
Li	      4.33144      4.16462      8.34928        -0.005865     -0.028634      0.015876
Ti	      4.24411      2.25728      2.03077        -0.020963      0.415329     -0.171756
Ti	      6.38962      2.18979      4.35484         0.074455     -0.074785      0.468717
Ti	      6.23007      6.24830      4.21345        -0.395450     -0.008351     -0.084686
Ti	      2.34627      4.31464      6.27168         0.299093      0.153520     -0.065923
Ti	      6.43727      6.13867      8.32778         0.080377     -0.359661      0.143453
Fe	      2.13084      2.13471      0.04344        -0.043470     -0.190052      0.043507
Co	      8.52408      4.22626      4.26966         0.043791      0.048087      0.014590
Co	      2.22750      6.27944      4.12839        -0.053498      0.034986     -0.066517
Cu	     10.62748      8.37090     10.40795         0.022492     -0.081301     -0.082341
O	      2.26518      2.05248      2.27333         0.098339      0.023727      0.143018
O	      4.26341      4.09320      2.08571         0.015551     -0.456401     -0.001310
O	      4.36917      2.14114      4.10182         0.014167     -0.037096     -0.052089
O	      6.39819      4.24065      4.22343        -0.052247     -0.004699      0.004283
O	      6.33748      2.11344      6.19018        -0.010647     -0.003408     -0.424517
O	      8.54184      4.11451      6.25935        -0.019908      0.166149     -0.025148
O	      2.21640      4.03118      4.33185         0.053927      0.065086      0.090708
O	      4.40309      6.20950      4.15473         0.297909      0.052347      0.039584
O	      4.13016      4.22765      6.35103        -0.301580      0.030212     -0.075420
O	      6.42396      6.37860      6.27515        -0.021750      0.028596     -0.005651
O	      6.37066      4.30913      8.33046         0.022530      0.232580      0.102244
O	      8.37821      6.27252      8.43191        -0.119388      0.029734     -0.055881
O	      2.17889      6.24681      6.20075         0.046851     -0.225908      0.014308
O	      4.36961      8.36519      6.38761         0.095446      0.056781      0.165471
O	      4.46924      6.41484      8.42817         0.084996      0.048238     -0.058911
O	      6.33104      8.41835      8.29569        -0.035083     -0.027418      0.006277
O	      6.43589      6.51927     10.33418         0.051221      0.167291      0.023847
O	      8.34938      8.39678     10.40436        -0.128547     -0.003550     -0.060671
