# total energy = -248.31346950 eV
 
CRYSTAL
PRIMVEC
0.031458 6.356187 6.279688 
6.372811 0.022352 6.288826 
4.247808 4.242833 0.015623 
PRIMCOORD
36 1
Li	      0.05235      0.10982      0.06581         0.080964      0.109312      0.009263
Li	      2.07591      2.03958      0.06267        -0.034343     -0.070083      0.036311
Li	      2.03924      0.06961      2.04413        -0.034915      0.040586     -0.059565
Li	      6.34530      2.15423      4.22665        -0.042538      0.017326      0.012733
Li	      4.32118      6.23331      2.10422         0.025337     -0.114387      0.058344
Li	      2.20556      4.22400      2.08901         0.036270      0.018251     -0.029793
Li	      2.12613      2.11909      4.12542        -0.029946     -0.024332     -0.053223
Li	      4.25403      4.26870      4.15828         0.008672      0.040758     -0.012446
Li	      4.30911      2.12417      6.26794         0.032275      0.006784      0.003115
Ti	      4.10663      2.27443      2.08576        -0.481343      0.359839      0.124166
Ti	      8.44043      4.28898      4.26904        -0.156212      0.059312      0.144595
Ti	      6.36050      4.08947      6.29233        -0.205732     -0.497429      0.112984
Ti	      4.34938      8.40255      4.24504        -0.014830     -0.460729     -0.066593
Ti	      6.50142      6.41264      8.37553         0.481002      0.143586     -0.147255
Fe	      2.16540      4.28898      6.25224         0.146716     -0.082465      0.059529
Co	      2.15121      6.39235      4.22467        -0.134948      0.174857     -0.045522
Co	      4.22345      6.35601      6.28322         0.014407     -0.155126      0.126971
Co	      8.48531      8.50325      8.37978         0.075743     -0.017573      0.037407
O	      2.28068      2.11239      2.08576         0.469382      0.008378     -0.033460
O	      4.26286      4.11165      2.12327        -0.020356     -0.433428     -0.018122
O	      4.25887      1.99460      4.05873        -0.000845     -0.158724     -0.011005
O	      6.49049      4.23619      4.32168         0.198478     -0.029983      0.081253
O	      6.37494      2.25830      6.33227         0.028535      0.521679      0.016293
O	      8.37466      4.31760      6.18996        -0.085899     -0.009858     -0.267476
O	      1.99968      4.24278      4.15049        -0.154715      0.185901     -0.058260
O	      4.26541      6.48730      4.16976         0.215999      0.424654     -0.021534
O	      4.39123      4.24421      6.26599         0.168682      0.018921     -0.194917
O	      6.35694      6.34482      6.41685         0.067019     -0.088737      0.212103
O	      6.38743      4.34882      8.38442         0.114967      0.205688      0.049520
O	      8.39327      6.38475      8.44485        -0.326902     -0.081278     -0.020963
O	      2.16903      6.31580      6.24614         0.000612      0.100184     -0.149864
O	      4.23978      8.49804      6.28436        -0.020140     -0.054703     -0.116010
O	      4.36627      6.41507      8.44648         0.030237      0.105343      0.118222
O	      6.33579      8.36074      8.42365        -0.133782     -0.142420      0.034675
O	      6.30233      6.28538     10.43607        -0.295321     -0.037727     -0.114817
O	      8.63846      8.61807     10.46864        -0.022531     -0.082378      0.183343
