# total energy = -239.88059122 eV
 
CRYSTAL
PRIMVEC
0.012509 6.171658 6.221449 
6.302142 0.003840 6.229970 
4.227134 4.145953 -0.023082 
PRIMCOORD
36 1
Li	      2.11815      0.04444      2.10672         0.039380      0.050887      0.019235
Li	      6.41871      8.27402     10.32305         0.051275      0.016736     -0.046286
Li	      0.06449      2.09449      2.12006         0.067383      0.011867      0.046524
Li	      2.08223      2.07203      4.04419        -0.025785      0.004225     -0.054805
Li	      8.42826      6.22774      6.22433        -0.005352      0.048195      0.041419
Li	     10.46200      8.20687     10.31207        -0.059713     -0.058194     -0.011786
Li	      8.46119      6.30014     10.33750         0.024883      0.032160     -0.043560
Li	      6.34058      8.24309      6.20195         0.017520     -0.050543     -0.018277
Li	      8.41984      8.21957      8.41304        -0.045807     -0.065226      0.039768
Ti	      6.37471      6.22449     12.41657         0.103611      0.032076      0.126658
Ti	      6.36737      4.08878      6.21511        -0.125614      0.074091      0.123513
Ti	      4.11760      4.03875      4.04999        -0.371333     -0.046227      0.019413
Ti	      4.14385      6.21572      6.17683         0.014091     -0.130545     -0.131367
Ti	      6.42314      6.25324      8.38148         0.414434      0.198010     -0.015178
Fe	      8.41437     10.26969     10.29968        -0.081658      0.275358     -0.136359
Cu	      2.05144      4.08973      2.18675        -0.066488      0.183215      0.265962
Ni	      8.41923      2.08881      6.21060        -0.006032     -0.043696     -0.068700
Ni	      4.18532      2.08139      2.05665         0.074005     -0.037541      0.030067
O	      2.16730      2.11696      2.00673        -0.110494     -0.164000      0.086565
O	      4.33602      4.15140      1.99679         0.211896      0.151432     -0.183609
O	      4.21120      2.13152      4.12079         0.029020      0.115322      0.125569
O	      6.22592      4.14537      4.27016        -0.058029     -0.018283      0.013724
O	      6.31576      2.04198      6.24803        -0.111448     -0.095737     -0.024500
O	      8.43126      4.18372      6.18686         0.092540      0.140642      0.020221
O	      2.29181      4.11280      4.21895         0.237522     -0.022546      0.060312
O	      4.23155      6.11929      4.27129        -0.004378      0.002031      0.004560
O	      4.30382      4.19962      6.10448         0.014098     -0.018007      0.006145
O	      6.21578      6.09405      6.31593         0.003854     -0.022131      0.010426
O	      6.20539      4.17713      8.14627        -0.189283     -0.053221     -0.065937
O	      8.26321      6.15383      8.28627        -0.350823      0.128845      0.025375
O	      2.11351      6.17983      6.22243        -0.072047     -0.129642     -0.031704
O	      4.23846      8.26224      6.19244         0.122696      0.083861     -0.125207
O	      4.24244      6.18061      8.15545        -0.001199     -0.128331     -0.069508
O	      6.27821      8.09322      8.27803         0.113104     -0.254091      0.029937
O	      6.36165      6.16820     10.43356         0.067344      0.014305      0.015047
O	      8.44205      8.31818     10.39749        -0.013175     -0.225297     -0.083654
