# total energy = -240.19223864 eV
 
CRYSTAL
PRIMVEC
0.042835 6.545336 6.169392 
6.244168 0.079213 6.135452 
4.199078 4.377243 0.013637 
PRIMCOORD
36 1
Li	      6.30696      0.25691      6.12857        -0.026178     -0.033026     -0.007673
Li	      6.23690      4.40609      2.04101        -0.009828     -0.078771     -0.016014
Li	      4.19765      6.52693      2.11728        -0.070454      0.026330      0.040725
Li	      6.08628      6.54980      4.15413         0.009376      0.014582      0.009964
Li	      4.29026      4.61170      4.09567        -0.010686      0.033363      0.040913
Li	      4.26995      2.28910      6.09829        -0.105781     -0.002379      0.006899
Li	      4.16503      8.52688      4.16570        -0.023867     -0.062570     -0.044612
Li	      4.19823      6.57024      6.01172        -0.033776     -0.080595      0.022957
Li	      4.19911      4.41890      8.18163         0.036507     -0.017198      0.041450
Ti	      8.29410      4.40700      4.25294        -0.016935      0.044380      0.181327
Ti	      2.15829      4.34313      2.12809        -0.030639      0.423728      0.281398
Ti	      4.11999      2.20833      2.00303         0.042638      0.030574      0.114333
Ti	      2.21686      4.43263      6.03013         0.471135      0.351058     -0.290197
Ti	      6.30008      6.55207      8.19617         0.301469     -0.171383     -0.083479
Fe	      6.23927      4.29930      6.13944        -0.177679      0.347241      0.070928
Cu	      2.12261      8.54073      6.14024         0.048533     -0.015392     -0.065858
Cu	      2.20156      6.62093      4.16800        -0.136317     -0.092687      0.094778
Ni	      6.27543      2.27826      4.11625        -0.007059      0.001488     -0.113678
O	      2.18169      2.37994      2.07478         0.027319     -0.126277     -0.195632
O	      4.08515      4.21416      2.08505        -0.086340     -0.105880     -0.067284
O	      4.23549      2.04304      3.97835        -0.081148      0.065020     -0.125584
O	      6.37989      4.44364      4.04765         0.088667      0.053904     -0.106285
O	      6.25232      2.32965      6.14993         0.285136     -0.371829      0.135576
O	      8.38670      4.60710      6.21443         0.129402     -0.001817     -0.205888
O	      2.07759      4.22628      4.09536         0.009968     -0.226538     -0.062925
O	      4.11061      6.56903      4.06982         0.507714     -0.011343     -0.011894
O	      4.08366      4.35221      6.16338        -0.343324      0.022486     -0.009257
O	      6.29132      6.66627      6.28951        -0.029404      0.064476      0.121717
O	      6.36118      4.61882      8.22250         0.005280      0.126961      0.116466
O	      8.27504      6.46806      8.31717        -0.161071     -0.188559     -0.475801
O	      2.11749      6.32706      6.15288        -0.054507     -0.236689      0.509356
O	      4.36322      8.70518      6.27597        -0.286533     -0.079146      0.087438
O	      4.29406      6.72311      8.29388         0.012758      0.086079     -0.031140
O	      6.24449      8.65960      8.15411        -0.058150     -0.019367     -0.012386
O	      6.26299      6.71567     10.20138        -0.313432      0.019457     -0.076884
O	      8.39354      9.08402     10.17537         0.087208      0.210319      0.126245
