# total energy = -239.76396077 eV
 
CRYSTAL
PRIMVEC
-0.078062 6.114524 6.292529 
6.837417 -0.076202 6.296087 
4.479010 4.000197 0.027493 
PRIMCOORD
36 1
Li	     11.02942      3.97583      6.43688        -0.020208     -0.039323      0.030815
Li	      9.06704      2.09827      6.38453        -0.057176     -0.012690      0.017927
Li	      6.57493      4.06814      2.16460         0.030979      0.017026      0.036116
Li	      4.24599      2.17842      2.17583        -0.029660      0.025930      0.021443
Li	      8.99224      3.98482      4.34058        -0.008352      0.007295      0.010518
Li	      2.49192      4.07040      2.01449         0.029027     -0.080344     -0.035718
Li	      2.36483      1.90048      4.11367        -0.018020      0.017000     -0.046236
Li	      4.49767      3.96772      4.07243        -0.001616     -0.005253     -0.021576
Li	      7.14856      3.99515      6.25602         0.000893     -0.018520     -0.055862
Ti	      6.68926      2.10123      4.37137        -0.231867      0.350539      0.349174
Ti	      4.44640      6.07301      6.17691         0.027463      0.114353     -0.122530
Ti	      2.15969      4.09585      6.16888         0.028567      0.080504     -0.254861
Ti	      8.93949      7.90292      8.49148         0.103562     -0.048382      0.074670
Ti	      6.64830      5.94170      8.48948         0.006913     -0.100693      0.213942
Fe	      0.35212      1.99257      2.05956        -0.183834      0.189503     -0.086507
Cu	      4.54203      1.92099      6.19851         0.030021      0.099872     -0.045783
Cu	      0.14472      4.16256      4.26782         0.111438      0.174348      0.115730
Cu	      2.29527      6.12582      4.33669         0.104952      0.083759      0.023555
O	      2.20204      2.08365      2.13238         0.167734     -0.021638      0.001471
O	      4.48674      4.16965      2.11351        -0.037659     -0.195841      0.023895
O	      4.78049      2.00477      4.21886         0.154632      0.008600     -0.148799
O	      6.85203      3.89788      4.20222        -0.021958     -0.364636      0.015009
O	      6.97418      1.96379      6.23242         0.084207      0.018685     -0.219715
O	      9.08741      4.03153      6.29379        -0.015750     -0.221686      0.025420
O	      2.30448      4.03968      4.33747         0.026340      0.128940      0.300416
O	      4.54826      6.02815      4.29119         0.067842      0.033094      0.111035
O	      4.20236      3.99811      6.37073        -0.033138      0.176826      0.005918
O	      6.45787      6.07226      6.37693        -0.142897      0.075508      0.026574
O	      6.40143      3.85401      8.29430        -0.182982      0.026131     -0.004859
O	      8.60750      5.95000      8.20517        -0.085554      0.035238      0.096152
O	      2.49518      6.00027      6.46516         0.050266     -0.032382     -0.066623
O	      4.64988      8.00389      6.45858         0.044444     -0.054883      0.007764
O	      4.65453      5.84613      8.28451         0.012755     -0.065148      0.018251
O	      6.81944      7.91284      8.41925         0.019787     -0.067691     -0.006491
O	      6.59933      6.04675     10.33884        -0.066417     -0.166442     -0.241247
O	      8.69481      7.96666     10.34754         0.035263     -0.167597     -0.168987
