# total energy = -247.18403938 eV
 
CRYSTAL
PRIMVEC
-0.024243 6.296283 6.262740 
6.390545 -0.013585 6.251884 
4.245885 4.175516 0.005710 
PRIMCOORD
36 1
Li	      2.17069      8.34398      6.24843         0.034998     -0.065468     -0.030242
Li	      6.38473     10.43775      8.36811         0.091650      0.011894      0.035425
Li	      8.47945     10.41395     10.39091        -0.047425     -0.018415     -0.007405
Li	      6.40243      8.40214     10.34956         0.054746      0.014961      0.026609
Li	      8.50628      4.19746      8.34436        -0.061864     -0.039183      0.000668
Li	      4.24761      4.16293      4.17304         0.049582      0.041038      0.054467
Li	      2.10263      4.25794      6.28228        -0.004192      0.007207      0.023336
Li	      8.43112      8.38744      8.39268         0.001330      0.020588     -0.011272
Li	      6.32320      6.31811      8.38631        -0.074053      0.044265      0.009868
Ti	      4.37398      8.33283      8.30166         0.355746     -0.191811     -0.122351
Ti	      4.33980      6.14826      2.12910         0.062200     -0.005857      0.010504
Ti	      8.36539      6.28707     10.52911        -0.097064      0.105322      0.116066
Ti	      4.21491      2.11188      6.21729         0.009256      0.060203      0.011689
Ti	      6.40214      4.16841      6.22757         0.103122     -0.111480     -0.149806
Fe	      2.15065      2.17118      4.14092        -0.091734      0.038933      0.012625
Fe	      6.31552      4.20573     10.36600        -0.018937     -0.021375      0.031409
Co	      4.24786      6.22147      6.32501        -0.098857     -0.000839      0.070085
Cu	      4.19192     10.40492      6.29785         0.007278     -0.061974      0.011936
O	      2.01976      2.09179      2.03914        -0.151896     -0.070339     -0.110131
O	      4.24919      4.21660      2.13688        -0.036515      0.051365     -0.095679
O	      4.26879      2.12916      4.23747         0.042850     -0.005872      0.039571
O	      6.37073      4.27205      4.34572        -0.020668     -0.107884      0.200209
O	      6.26595      2.19754      6.29056        -0.052397      0.131863      0.016966
O	      8.35865      4.32385      6.24115        -0.054527      0.104853     -0.031882
O	      2.01354      4.24648      4.17691         0.129477      0.133647      0.007201
O	      4.15623      6.21886      4.08434        -0.030472     -0.083048     -0.171540
O	      4.33239      4.10253      6.27725         0.059248     -0.080301      0.013082
O	      6.46721      6.22170      6.34930         0.085601     -0.015236      0.033327
O	      6.38176      4.03407      8.22152         0.018298     -0.092346     -0.160896
O	      8.65433      6.23610      8.26543         0.034768     -0.006637     -0.020397
O	      2.22595      6.26306      6.12860         0.028985      0.029887     -0.165545
O	      4.20049      8.31231      6.39080         0.043369      0.022909      0.205090
O	      4.22218      6.43662      8.38541         0.026983      0.248942      0.004374
O	      6.18886      8.43169      8.34996        -0.378987     -0.052259     -0.004735
O	      6.50684      6.30238     10.36124         0.147120      0.142481      0.106803
O	      8.53643      8.21426     10.40524        -0.167023     -0.180035      0.040571
