# total energy = -247.24845100 eV
 
CRYSTAL
PRIMVEC
0.011953 6.278931 6.323130 
6.253468 0.022220 6.313194 
4.203008 4.213701 -0.019446 
PRIMCOORD
36 1
Li	      4.22728     10.46995      6.31263        -0.001018     -0.023979     -0.023519
Li	      2.08742      6.31238      8.35321         0.018069     -0.036061     -0.058804
Li	      2.10953      4.20102      2.20998        -0.043623     -0.003810      0.046829
Li	      2.09995      2.27743      4.31397         0.006364      0.019473      0.065639
Li	      4.00656      4.21472      4.28269         0.010001     -0.003696      0.040028
Li	      8.31167      6.31853      6.28609         0.004516      0.009705      0.006849
Li	      2.14530      6.11890      4.28390         0.014901      0.011438      0.037906
Li	      2.13439      4.20297      6.14057         0.006485      0.036475      0.042982
Li	      4.20489      6.28131      6.24583         0.020072      0.014883     -0.036742
Ti	      2.12659      8.27285      6.28229         0.137186     -0.516525      0.018282
Ti	      6.27152      2.11000      4.21446        -0.102066      0.084697     -0.098946
Ti	      4.21481      6.16248      2.20519         0.021110     -0.120513      0.487743
Ti	      4.16771      2.18432      2.08222        -0.004858      0.128470     -0.072162
Ti	      4.12115      4.23403      8.36659        -0.091465     -0.055374     -0.220250
Fe	      4.15855      0.05756      4.23690         0.019632      0.066703     -0.009116
Fe	      6.27572      4.33283      6.28583        -0.112277     -0.029185      0.030711
Co	      0.14884      4.17998      4.28874         0.172474     -0.060765     -0.043660
Co	      6.35177      6.28961      8.34730        -0.010794      0.035042     -0.053214
O	      2.09089      2.07734      2.02370         0.022116     -0.018399     -0.013371
O	      4.18663      4.21435      2.07237         0.006322      0.052398     -0.014897
O	      4.24426      2.16879      4.08149         0.091440     -0.002027     -0.058103
O	      6.30592      4.06423      4.28225        -0.059519     -0.249684     -0.052263
O	      6.28177      2.12253      6.29477        -0.016245     -0.006486      0.028936
O	      8.26079      4.09838      6.31151        -0.014681     -0.105719      0.131426
O	      2.06833      4.21137      4.21063        -0.176385     -0.019524     -0.050480
O	      4.25252      6.27209      4.03681        -0.042224      0.037417     -0.530163
O	      4.21981      4.23267      6.47075         0.048047     -0.011494      0.319518
O	      6.30633      6.24667      6.32665         0.019217     -0.001366      0.168383
O	      6.17552      4.10271      8.38381        -0.031802     -0.027390     -0.039094
O	      8.46229      6.43956      8.40114         0.084757      0.168014      0.010357
O	      2.10326      6.43290      6.29954         0.010309      0.577743      0.005173
O	      4.13500      8.43349      6.41692        -0.106990     -0.013428      0.074306
O	      4.20257      6.30597      8.42103         0.045441     -0.057329     -0.051706
O	      6.26751      8.45194      8.44368         0.049397     -0.024850     -0.009212
O	      6.25030      6.41682     10.46854         0.027210      0.139531     -0.042428
O	      8.38947      8.36744     10.50942        -0.021121      0.005614     -0.036940
