# total energy = -243.84073764 eV
 
CRYSTAL
PRIMVEC
0.001977 6.421256 6.385409 
6.396588 -0.046974 6.435083 
4.204991 4.254301 0.028397 
PRIMCOORD
36 1
Li	      4.29850     10.57432      6.47055        -0.017354     -0.026107      0.047537
Li	      2.26719      8.39472      6.43227         0.060446     -0.025265      0.012002
Li	      2.10274      6.46238      8.36900         0.030150      0.035470     -0.047997
Li	      4.13354      2.19587      2.05047        -0.053416      0.014174      0.004099
Li	      4.15013      4.26085      4.26826        -0.026236      0.016819     -0.004729
Li	      4.26429      2.11144      6.39113        -0.037957     -0.013234      0.029693
Li	      4.23459      8.47651      4.43758         0.027294     -0.008797      0.009741
Li	      2.17695      6.36593      4.39169         0.002416     -0.046512     -0.028155
Li	      4.08840      6.53265      6.33082        -0.002754      0.021255     -0.053824
Ti	      4.36548      0.09172      4.37167         0.029359      0.310912      0.181416
Ti	      4.35171      6.19382      2.24634         0.122786     -0.151322      0.317969
Ti	      6.28435      4.13673      6.34698        -0.149504     -0.029861     -0.118568
Ti	      8.43661      8.55079      8.65941        -0.036229      0.066604      0.201319
Ti	      6.44788      6.37215      8.51503         0.191743     -0.007638     -0.129713
Fe	      2.09118      2.22049      4.27611         0.027638     -0.192827      0.020630
Fe	      1.94681      4.48720      6.31539         0.135107     -0.103708     -0.005312
Cu	      6.33637      2.07867      4.46820         0.029528      0.011763      0.232464
Cu	      2.24462      4.19314      2.15616         0.060987      0.006031      0.002681
O	      2.01425      2.07691      2.11197        -0.236362      0.024852     -0.040855
O	      4.26409      4.35848      2.16263        -0.045848      0.287231      0.033881
O	      4.25268      1.95807      4.23616         0.146260     -0.274787      0.016562
O	      6.42489      4.32478      4.42853         0.109353      0.011601      0.168362
O	      6.31592      2.25268      6.65765        -0.039659      0.187347      0.032935
O	      8.36572      4.21562      6.27821        -0.054104     -0.007902     -0.254684
O	      2.16647      4.19669      4.41518        -0.045195      0.175947     -0.081804
O	      4.16732      6.42359      4.11098        -0.013763     -0.000091     -0.385623
O	      4.38019      4.25465      6.51535         0.177525     -0.031832      0.009849
O	      6.40015      6.22307      6.58383         0.028453     -0.085507      0.241886
O	      6.25618      4.31384      8.46795        -0.151693     -0.009083     -0.102296
O	      8.39267      6.53318      8.63507        -0.110184      0.053843     -0.031114
O	      2.11386      6.36139      6.38285         0.035322      0.107607     -0.013673
O	      4.27482      8.53697      6.44114        -0.099980     -0.042659      0.000703
O	      4.35792      6.27579      8.63002         0.043771     -0.136946      0.085582
O	      6.48590      8.35576      8.35542         0.072501     -0.154442     -0.002968
O	      6.27946      6.32215     10.50927        -0.076418     -0.014299     -0.184860
O	      8.43792      8.64527     10.54129        -0.133983      0.031365     -0.163136
