# total energy = -247.45369264 eV
 
CRYSTAL
PRIMVEC
0.037183 6.416717 6.271743 
6.422710 0.030089 6.279087 
4.291095 4.291938 0.010833 
PRIMCOORD
36 1
Li	      6.36754      4.24748      2.18069        -0.052740     -0.081173      0.081929
Li	      4.34523      2.19567      2.17689         0.050842      0.038022      0.033072
Li	      4.33642      6.47352     10.36825         0.067703      0.009665     -0.048191
Li	      6.39083      8.57735     10.36161        -0.159189     -0.024139     -0.058609
Li	      4.34498      4.25343      4.06573         0.055730     -0.063316     -0.051425
Li	      8.61135      6.46527      6.33631        -0.004714      0.038614     -0.058212
Li	      8.58265      6.49823     10.34236        -0.049306      0.074137      0.018404
Li	      8.53866      8.48220      8.41947        -0.096784     -0.108413      0.054207
Li	      6.52085      6.51018      8.44309         0.020770      0.114933      0.066420
Ti	      8.44243      2.23224      6.25449        -0.126103      0.369115     -0.361789
Ti	      2.28771      2.05209      4.05406         0.399282     -0.283094      0.083992
Ti	      6.44712      4.35220     10.28857        -0.242156      0.261728      0.115637
Ti	      4.30878      6.40084      6.43061        -0.030754      0.106667      0.443785
Ti	      6.49215      8.59851      6.42014         0.111082     -0.056409      0.495476
Fe	      4.32152      4.28172      0.07851        -0.067429     -0.010265     -0.203721
Fe	      8.62808      4.49722      8.41670         0.187913     -0.114827     -0.077325
Fe	      6.38220      4.31774      6.32967         0.008644     -0.078372     -0.114775
Cu	      4.17856      6.34452      2.15003        -0.067087     -0.124864      0.047144
O	      2.18434      2.17878      2.10327         0.003057      0.058934      0.063078
O	      4.34874      4.23557      2.04457        -0.159628      0.136179      0.184203
O	      4.12327      2.15781      4.21540        -0.564793     -0.025590     -0.059207
O	      6.40279      4.47175      4.26527         0.062745      0.462591     -0.123862
O	      6.58879      2.16526      6.09790         0.351955      0.017498      0.008589
O	      8.56230      4.12319      6.27950        -0.059646     -0.497045      0.024277
O	      2.04968      4.19451      4.30280        -0.181306     -0.110432     -0.087989
O	      4.43555      6.58155      4.33108         0.165545      0.212766      0.137307
O	      4.16451      4.41254      6.24545        -0.151762      0.131787      0.097778
O	      6.36395      6.55955      6.22257        -0.078962      0.137052     -0.053036
O	      6.39526      4.35010      8.40121         0.071648      0.010720      0.244313
O	      8.54248      6.45675      8.35443         0.083882      0.007934     -0.057493
O	      2.29360      6.40279      6.26601         0.124925      0.049716      0.092524
O	      4.32231      8.47167      6.24788         0.057616     -0.173582     -0.016271
O	      4.34905      6.43991      8.23942        -0.042299     -0.021945     -0.471712
O	      6.44406      8.57572      8.24640         0.046535      0.043456     -0.564590
O	      6.47045      6.24378     10.55303         0.066166     -0.482082     -0.174575
O	      8.77174      8.54704     10.60014         0.198616     -0.025965      0.290648
