# total energy = -245.34678391 eV
 
CRYSTAL
PRIMVEC
0.022183 6.278493 6.388367 
6.281090 -0.026491 6.437035 
4.195925 4.225901 -0.025915 
PRIMCOORD
36 1
Li	      6.29711      0.14354      6.40012        -0.026375     -0.012383     -0.012976
Li	      8.15897      2.10446      6.39858        -0.034960      0.057657     -0.013585
Li	      6.28942      2.07946      4.48927         0.005679      0.004474     -0.049752
Li	      6.20580      2.11449      8.43245        -0.044851     -0.002014      0.035395
Li	      6.20467      4.07220      6.49671        -0.015842      0.045830      0.084377
Li	      4.19863      8.38755      4.26029        -0.059254      0.003576      0.014794
Li	      4.21307      6.24693      6.35435        -0.042532      0.007266      0.049209
Li	      4.31830      4.15936      8.52380        -0.014470      0.033403      0.004609
Li	      6.34104      6.22049      8.60351         0.015961      0.001419      0.040115
Ti	      8.36364      6.43856     10.75085        -0.129620      0.412876     -0.142896
Ti	      2.06803      0.01556      2.11621         0.136593     -0.115741      0.139240
Ti	      4.22882      8.35679      8.43461         0.047762     -0.159079      0.063436
Ti	      8.21096      4.22297      8.45960        -0.381246      0.119736     -0.182150
Ti	      2.15255      4.05511      6.27002        -0.073246     -0.168317      0.116448
Mn	      8.51474     10.46964     10.77602         0.003252     -0.015484      0.003872
Co	      4.22138      4.19179      4.28194         0.145048     -0.023006      0.036854
Cu	      6.12560      6.23207      4.46285        -0.070427     -0.105928      0.187127
Cu	      4.28490      2.12356      6.46935        -0.212772     -0.026765      0.042913
O	      2.22599      2.11916      1.95365         0.004364      0.098278     -0.062707
O	      4.26089      4.13162      2.06908        -0.024630      0.080419     -0.027915
O	      4.26189      2.13605      3.95734         0.042125     -0.002592     -0.161693
O	      6.30706      4.19912      3.97885         0.030993      0.131280     -0.136102
O	      6.17881      2.12715      6.43205         0.231990     -0.045297      0.020754
O	      8.36249      4.26573      6.58023         0.011030     -0.125419      0.191871
O	      2.09811      4.22622      4.29163        -0.032172     -0.011961     -0.062066
O	      4.00948      6.21265      4.29328         0.130935      0.081904     -0.021183
O	      4.12640      4.14662      6.41531        -0.034341      0.123269     -0.090635
O	      6.44685      6.40858      6.50120        -0.082635     -0.006944     -0.077245
O	      6.41478      4.15177      8.58653         0.409320     -0.021891     -0.013153
O	      8.38785      6.10678      8.76827        -0.003969     -0.136046      0.246115
O	      2.12037      6.19082      6.38172        -0.038963      0.052558     -0.079556
O	      4.41800      8.32685      6.47986         0.083529      0.017083     -0.081217
O	      4.09066      6.40426      8.49112        -0.040190      0.033617     -0.070367
O	      6.26069      8.56921      8.33709         0.023153      0.013025     -0.064109
O	      6.43921      6.27398     10.71410         0.078878     -0.021505      0.027965
O	      8.42453      8.30082     10.70348        -0.038118     -0.317296      0.044213
