# total energy = -242.43804598 eV
 
CRYSTAL
PRIMVEC
0.042209 6.433801 6.366119 
6.358311 0.090152 6.318481 
4.264000 4.282625 0.034576 
PRIMCOORD
36 1
Li	      6.37660      4.29899      2.18295         0.052496     -0.012714      0.051140
Li	      6.34552      2.23754      4.24778        -0.009686      0.024385     -0.003871
Li	      4.26661      6.43223      2.24299         0.004508     -0.007523     -0.026344
Li	      6.25561      6.41716      4.32963        -0.042042     -0.037043     -0.002415
Li	      4.35462      4.42067      4.36383         0.092973      0.061070     -0.005348
Li	      4.29278      2.36432      6.31105         0.028825      0.093632     -0.010666
Li	      6.20384      4.33054      6.31337        -0.081423     -0.094914     -0.000597
Li	      4.30558      8.46431      4.29225        -0.010099     -0.064016      0.019930
Li	      4.28337      4.34595      8.30362        -0.001784      0.026409     -0.125815
Ti	      8.35377      2.15861      6.33122        -0.393274     -0.159350     -0.025675
Ti	      4.32066      2.23987      2.15615         0.131060      0.097781      0.153196
Ti	      8.37391      4.37317      4.28959        -0.439223      0.102030     -0.016509
Ti	      2.10515      4.28288      2.27764        -0.070501      0.079168      0.381925
Ti	      6.40964      6.43489      8.39048        -0.028334     -0.175950     -0.224870
Mn	      2.26721      6.46707      4.26971        -0.046420      0.062135     -0.040000
Cu	      4.39145      6.30082      6.18004         0.238168     -0.131465     -0.149677
Ni	      6.37281      6.53000     12.63125         0.003843      0.075611     -0.030549
Ni	      2.23774      4.30649      6.31241        -0.097175      0.091111     -0.089717
O	      2.22876      2.27551      2.01225         0.072103      0.073535     -0.087370
O	      4.14805      4.17544      2.11180        -0.080542     -0.183505      0.071222
O	      4.24901      2.06397      4.10137         0.029179     -0.153367     -0.169939
O	      6.54826      4.33154      4.22332         0.366510      0.010668      0.039807
O	      6.50395      2.20278      6.37830         0.334289      0.032167     -0.004338
O	      8.55226      4.26033      6.31316        -0.130832     -0.092271     -0.025793
O	      2.14248      4.25062      4.12243        -0.030486      0.010774     -0.288715
O	      4.28827      6.47040      4.15508         0.086060      0.001714     -0.043687
O	      4.21357      4.30529      6.37297         0.133591     -0.015418     -0.075326
O	      6.45801      6.55418      6.52619        -0.105790     -0.063365      0.221526
O	      6.51139      4.48135      8.41977         0.134171      0.168602     -0.000196
O	      8.42320      6.35025      8.44215        -0.112369     -0.190904     -0.033658
O	      2.04941      6.55723      6.43765         0.144404      0.184008      0.084926
O	      4.25279      8.60864      6.52824        -0.017841     -0.031717      0.066155
O	      4.36995      6.56870      8.63290        -0.002767      0.118937      0.177047
O	      6.29717      8.54028      8.45497        -0.180651     -0.015293      0.094755
O	      6.34518      6.51881     10.50204         0.007181      0.009014     -0.088741
O	      8.55207      8.78110     10.75117         0.021876      0.106064      0.208187
