# total energy = -242.58016329 eV
 
CRYSTAL
PRIMVEC
0.083071 6.303647 6.409496 
6.362535 0.058533 6.432911 
4.276036 4.251755 0.005360 
PRIMCOORD
36 1
Li	      4.21653      2.19976      2.11646        -0.012702     -0.043473     -0.022551
Li	      0.14234      2.10473      2.19007        -0.003946     -0.014652     -0.058041
Li	      2.03849      4.01513      2.20123        -0.084286     -0.015969     -0.028432
Li	      2.04564      2.19887      4.16415         0.026260      0.022200     -0.020029
Li	      6.33934      4.30021      6.47049         0.001107     -0.012608     -0.002882
Li	      0.10385      4.15453      4.24144         0.003316     -0.009678     -0.004256
Li	      6.40762      8.43486      6.49159        -0.003064      0.060309      0.062269
Li	      4.47950      6.46808      6.32318         0.049761      0.052088      0.004471
Li	      6.43938      6.40444      8.57122        -0.013884      0.029514      0.016842
Ti	      4.39891     10.45582      6.47893         0.122870     -0.209536      0.297660
Ti	      4.18277      0.07292      4.24535        -0.223168      0.113924     -0.136493
Ti	      8.37617      6.45229      6.41662        -0.289903      0.038042     -0.136005
Ti	      2.35148      6.10044      4.19099         0.014143     -0.253617      0.145297
Ti	      4.45793      4.27230      8.56309         0.325396      0.083421     -0.083207
Mn	      2.10578      2.10824      0.09028         0.003041     -0.019883      0.074283
Cu	      6.36481      4.30856      2.22476         0.010806      0.034271     -0.075058
Cu	      6.36076      2.16706      4.27988        -0.092337      0.029368     -0.003236
Cu	      4.34973      4.26752      4.21495         0.018584     -0.052779     -0.030755
O	      2.13156      2.00570      2.15594        -0.032501      0.094903     -0.061928
O	      4.34194      4.25639      1.93624        -0.109322     -0.009634     -0.258211
O	      4.10517      2.01409      4.44871        -0.161772     -0.058314      0.147224
O	      6.59296      4.15388      4.47406         0.149963      0.191694      0.188856
O	      6.24195      2.03952      6.32659         0.012685     -0.046033      0.151069
O	      8.63231      4.37567      6.35709         0.042824      0.079219     -0.011326
O	      2.10788      4.30118      4.16364         0.071886      0.322395     -0.035283
O	      4.18290      6.35028      4.29256        -0.125097     -0.122131     -0.036773
O	      4.26177      4.12072      6.61032        -0.001824     -0.104469      0.160565
O	      6.55890      6.39203      6.50015         0.280265      0.024068      0.022172
O	      6.28835      4.25785      8.50552        -0.348728      0.019209      0.048568
O	      8.52646      6.51916      8.61082         0.013874      0.052577      0.110115
O	      2.07104      6.30730      6.11947        -0.087432     -0.043626     -0.335760
O	      4.34599      8.57755      6.40165         0.038500      0.235302     -0.034896
O	      4.32682      6.29973      8.70964         0.141393     -0.101039      0.154216
O	      6.58817      8.64208      8.70357         0.057112     -0.121600     -0.146560
O	      6.39549      6.45150     10.74259         0.004833     -0.237527      0.028586
O	      8.73707      8.59168     10.60615         0.201348     -0.005937     -0.090510
