# total energy = -45.46384779 eV
 
CRYSTAL
PRIMVEC
-0.000670 2.168078 2.170466 
2.154210 2.211454 -4.384986 
-4.335982 2.207448 -2.208537 
PRIMCOORD
8 1
Li	     -2.24430      4.52935     -2.25104        -0.294257     -0.510874      0.516371
Li	     -0.04808      2.39185     -2.39164        -0.155344      0.014193     -0.036171
Mn	      0.00009      0.00170      0.00067        -0.412500      3.565502     -3.411642
Ni	     -2.27661      2.29912     -0.01947         1.144538      0.233626     -0.469592
O	     -2.29693      4.75991     -4.76472         0.355362     -1.911379      2.241193
O	     -2.41715      2.30019     -2.29705         0.039291     -0.557270      0.728141
O	      0.12597      4.62017     -2.34611        -0.312241     -0.434172      0.203075
O	      0.00562      2.16003      0.12139        -0.364850     -0.399626      0.228624
