# total energy = -242.73745071 eV
 
CRYSTAL
PRIMVEC
-0.045331 6.294781 6.213580 
6.298917 -0.062928 6.230879 
4.158157 4.166610 -0.000547 
PRIMCOORD
36 1
Li	      4.16324      8.31739      8.32369        -0.089935      0.067382     -0.016368
Li	      6.22325      6.20589      4.19116        -0.075972      0.119267      0.161040
Li	      4.20956      4.18040      4.18886        -0.063498      0.072434      0.122763
Li	      6.18069      4.21377      6.20733        -0.066578      0.111247      0.186559
Li	     10.38527      8.27913     10.38003        -0.016045     -0.035641     -0.094972
Li	      8.37543      6.26454     10.36363         0.072782      0.034769     -0.149263
Li	      4.18174      6.22800      6.19533         0.113780     -0.011681     -0.190634
Li	      4.17353      4.18474      8.30070         0.279063     -0.187490     -0.032763
Li	      6.21620      6.23334      8.28675         0.172558     -0.260084     -0.042529
Ti	     -0.01378      6.23559      6.16397        -0.707911      0.216439     -0.460340
Ti	      4.06367      6.24910     10.17318         0.640696     -0.117088      1.165513
Ti	      4.16586      6.30230      2.24052        -0.657020      0.729897     -0.198564
Ti	      2.04505      4.15816      2.26634        -0.707080      0.431855     -0.045960
Ti	      6.29310      8.27300      6.32953         0.010361     -0.591543     -1.124546
Mn	      4.16807      2.10641      6.19205        -0.032690     -0.079707      0.300241
Ni	      2.06961      8.34164      6.17514         0.087816      0.218732      0.013349
Ni	      2.11100     -0.00449      2.09121        -0.262795      0.136984     -0.126627
Ni	      6.25010      8.34227     10.29930         0.035458     -0.298127      0.261524
O	      2.00177      2.15397      2.03533         0.704520     -0.969828      0.107581
O	      4.06621      4.25298      1.98931         1.051581     -0.525314      0.171214
O	      4.24695      1.90248      4.13005        -0.175643     -0.102515     -0.396851
O	      6.36287      4.10504      4.16408        -0.249249      0.210552     -0.263732
O	      6.34532      1.90899      6.26328         0.024628      0.106514     -0.123356
O	      8.47503      4.05727      6.28035        -0.032985      0.008643     -0.175368
O	      2.06787      4.17130      4.09683         0.100147     -0.008475      0.403591
O	      4.14734      6.26834      4.01710         0.081950     -0.150659      0.501971
O	      4.00789      4.21594      6.19353        -0.021090      0.206841      0.071834
O	      6.18492      6.40224      6.21631        -0.099409      0.241830      0.094320
O	      6.37658      4.04923      8.26127        -0.143138      0.108124     -0.056436
O	      8.44663      6.09313      8.32469        -0.283821      0.292108     -0.007881
O	      1.93329      6.24749      6.20656         0.641942     -0.020739      0.326723
O	      4.18849      8.48628      6.20413         0.049051     -0.419661      0.148974
O	      4.15281      6.24240      8.38309        -0.259713      0.065220     -0.679877
O	      6.22303      8.36559      8.17484        -0.062302      0.336223      0.777340
O	      6.15127      6.26909     10.47287        -0.099842     -0.091840     -0.228535
O	      8.30286      8.43859     10.40460         0.040382      0.155329     -0.399937
