# total energy = -236.48678440 eV
 
CRYSTAL
PRIMVEC
0.005158 6.218032 6.288252 
6.319110 0.016966 6.276511 
4.222822 4.147500 0.001256 
PRIMCOORD
36 1
Li	      6.34715     10.32280      8.43145         0.011149     -0.073122      0.039833
Li	      6.34339      8.30995     10.47873        -0.003559      0.037214      0.022915
Li	      8.28238      4.29098      8.41156        -0.046886      0.001415      0.039141
Li	      4.22905      4.17910      4.19819         0.009903      0.018465      0.027320
Li	      6.26076      4.16125      6.42307        -0.033710      0.001776     -0.036185
Li	      6.33304      4.14947     10.31576         0.010527     -0.026825      0.006290
Li	      8.44298      6.24547     10.32606         0.014215      0.016641     -0.017461
Li	      4.25632      6.19677      6.28763         0.023212     -0.033979     -0.024841
Li	      4.35787      4.05587      8.35993         0.009473      0.009617     -0.039601
Ti	      2.08902      2.07008      0.03971        -0.220566      0.003736     -0.298738
Ti	      4.19665      2.21310      2.07388         0.284636      0.245098      0.147668
Ti	      4.26994      6.15932     10.39058         0.015525     -0.138315     -0.092807
Ti	      6.20622      6.19997      4.19591        -0.353111     -0.060929      0.145362
Ti	      2.25399      4.23227      6.25034         0.473017      0.019806     -0.062766
Ni	      6.35306      6.23563     12.53017         0.016952     -0.001606     -0.015142
Ni	     10.45268      6.29382      8.39950        -0.004221     -0.053120      0.101247
Ni	      4.26178      2.07925      6.32033         0.004654      0.028299     -0.042174
Ni	      6.39445      6.15435      8.39900        -0.014176      0.005979     -0.067983
O	      2.13103      2.04972      2.12150         0.164995     -0.004159     -0.147303
O	      4.22847      4.07611      2.08282         0.000358     -0.404520      0.045043
O	      4.17500      2.02718      4.15321        -0.038057     -0.043916     -0.201416
O	      6.45836      4.28066      4.21171         0.076858      0.096976     -0.042151
O	      6.39564      2.04606      6.33360         0.321171      0.121318     -0.128973
O	      8.48793      4.06552      6.20388        -0.083714     -0.191391     -0.028670
O	      2.10186      4.05073      4.32396         0.007699     -0.046342      0.089848
O	      4.35211      6.18699      4.16382         0.336622      0.019380      0.123337
O	      4.09155      4.15998      6.28462        -0.414056      0.111363     -0.020891
O	      6.35901      6.32304      6.19641        -0.115814      0.031067     -0.102759
O	      6.31277      4.16423      8.36294         0.000968     -0.041230      0.019604
O	      8.42764      6.22268      8.31715        -0.007482      0.024047      0.145301
O	      2.11160      6.22121      6.26643         0.108150      0.059276      0.034359
O	      4.19058      8.26327      6.35805        -0.159274     -0.037460      0.104616
O	      4.22985      6.31257      8.48900        -0.121659      0.089746      0.156992
O	      6.19922      8.26014      8.23616        -0.166276      0.137028     -0.012625
O	      6.18797      6.25611     10.48383        -0.164742     -0.001507     -0.016077
O	      8.38543      8.40003     10.60682         0.057219      0.080173      0.149686
