# total energy = -212.64780624 eV
 
CRYSTAL
PRIMVEC
-0.002054 6.235147 6.237223 
6.175677 0.020349 6.215392 
4.154940 4.180053 -0.024405 
PRIMCOORD
36 1
Li	      2.12799      8.34621      6.22727         0.039428     -0.061265     -0.001325
Li	      4.07190      2.09318      2.08335        -0.008788     -0.035507     -0.080824
Li	      8.25853     10.40710     10.33247        -0.005097      0.056038      0.044159
Li	      0.11456      2.08852      2.18342        -0.089841      0.045968     -0.017994
Li	      2.09623      4.07727      2.10824        -0.097385      0.141888      0.056179
Li	      4.10873      4.23750      4.17813        -0.039167      0.036354      0.042528
Li	      4.12698      8.27051      4.21025         0.009845      0.031877      0.031958
Li	      6.09667      8.42126      6.16966        -0.027286      0.002947     -0.079012
Li	      4.14190      6.20268      6.17188        -0.071366      0.002220     -0.043141
Sc	      4.13816      2.08143      6.20829        -0.017208     -0.012933      0.181078
Mn	      6.22441      4.16891      6.21121         0.071148     -0.046735     -0.068393
Cr	      6.09325      6.25004      8.32166         0.385464      0.047267     -0.031657
Fe	      6.20327      8.37774     10.30939        -0.026247     -0.008101      0.085559
Co	      4.18892     10.28366      6.24397        -0.189177      0.072898     -0.362643
Co	      2.07096      6.31152      8.25117         0.120480     -0.012625      0.339200
Co	      2.20398      6.13096      4.12255        -0.425836      0.793587      0.379414
Ni	      2.01846      2.16276      4.07407         0.073744      0.026083      0.138374
Ni	      8.26723      8.35731      8.30469         0.072649     -0.200778     -0.111492
O	      2.07826      1.92230      2.11039         0.080828      0.460463      0.137478
O	      4.31819      4.23224      1.80217         0.027672     -0.142205      0.265831
O	      4.15738      2.14028      4.17475        -0.068625     -0.026215     -0.101789
O	      6.21554      4.17111      4.19213         0.066524      0.065183      0.448008
O	      6.21386      2.21080      6.15565         0.008403     -0.062406      0.014444
O	      8.24148      4.18530      6.21902         0.010703      0.010632      0.007769
O	      2.08244      4.26552      4.15192         0.191758     -0.159723     -0.050933
O	      4.13593      6.29989      4.16213        -0.186452     -0.161170      0.001432
O	      4.31200      4.16084      6.25415         0.014900      0.024156     -0.108927
O	      6.19048      6.13301      6.28102        -0.031772      0.134957     -0.111211
O	      6.17987      4.25687      8.13700         0.025861     -0.022142      0.181973
O	      8.13048      6.26913      8.30737        -0.152006     -0.033444     -0.032687
O	      1.89812      6.22331      6.30761         0.065232     -0.146647     -1.176881
O	      4.13352      8.53864      6.19463        -0.047438     -0.126629      0.085666
O	      4.05428      6.21067      8.28380        -0.020531      0.057169      0.011981
O	      6.19139      8.33208      8.31661        -0.162350     -0.238163      0.002282
O	      6.18383      6.32695     10.42888         0.309145     -0.037914     -0.115897
O	      8.19128      8.19166     10.33295         0.092784     -0.475085      0.039492
