# total energy = -216.72994295 eV
 
CRYSTAL
PRIMVEC
0.023066 6.166836 6.229491 
6.355237 0.003154 6.249505 
4.228798 4.116940 0.009624 
PRIMCOORD
36 1
Li	      4.26697      0.02630      4.21965        -0.006736     -0.096716      0.062750
Li	      6.36518      8.12518     10.45163         0.053523     -0.033155      0.085497
Li	      6.35996      2.11201      8.34617         0.024775      0.047010     -0.155175
Li	      4.30933      4.15322      4.27617         0.006973      0.015250     -0.073536
Li	      4.25631      2.12777      6.14222         0.037900      0.005149     -0.024879
Li	      6.28976      4.09755      6.19347         0.071786     -0.163300      0.066560
Li	      8.41274      6.23131     10.42078        -0.065466      0.131740      0.051784
Li	      4.32069      6.07631      6.21915        -0.023934      0.021166     -0.002522
Li	      6.34343      6.18541      8.38308         0.053150     -0.031097      0.081611
Sc	      8.48391      4.31174      8.28206        -0.020985     -0.155336     -0.074356
Mn	      6.33990      6.12895      4.20645        -0.087077     -0.097604     -0.198462
Cr	     10.59669      8.24737     10.42701        -0.406420      0.094681     -0.104268
Fe	      4.29574      8.13242      8.37230        -0.206279      0.157864     -0.139664
Co	      6.36829      6.16565     12.45409         0.045665      0.248008     -0.011113
Co	      8.39930      8.20775     12.36237         0.367033     -0.026298      0.450616
Co	      6.34024      4.08739      2.15337        -0.108491      0.005462     -0.085212
Co	      4.30122      4.11116      8.31172        -0.224197      0.022282     -0.025344
Cu	      2.19380      4.08999      6.23434         0.202228     -0.080537     -0.174002
O	      4.16823      4.11507      6.39385        -0.034619      0.003709     -0.142757
O	      2.20910      2.10642      2.07780        -0.015897     -0.159006     -0.028598
O	      4.23190      4.04175      1.97675         0.018087     -0.039071     -0.065333
O	      4.08756      2.07277      4.06685        -0.105269     -0.021482      0.090552
O	      6.29961      4.25096      4.16775        -0.023069      0.180300      0.001124
O	      6.47817      1.91654      6.22013         0.482900      0.144103     -0.076151
O	      8.60036      4.02656      6.25866        -0.168116     -0.393593     -0.179172
O	      2.06719      4.04563      4.20594         0.042610     -0.066339     -0.060316
O	      4.42502      6.23238      4.16575         0.124336     -0.020447      0.053634
O	      6.38570      6.20158      6.05693         0.042126      0.025597      0.122147
O	      6.40858      4.17688      8.41468         0.140724      0.008185      0.005584
O	      8.50715      6.31216      8.34238         0.101409      0.139802      0.001670
O	      1.95991      6.18131      6.26815        -0.046218      0.453498      0.103038
O	      4.20255      8.29956      6.23003        -0.585323     -0.070093      0.005462
O	      4.19749      6.08972      8.28876         0.029161     -0.233051      0.076038
O	      6.25794      8.15459      8.20220        -0.043305      0.140623      0.196377
O	      6.37378      6.10615     10.53709         0.034330     -0.096519      0.089921
O	      8.56970      8.21813     10.42899         0.292685     -0.060783      0.076494
