# total energy = -216.89085954 eV
 
CRYSTAL
PRIMVEC
0.023118 6.239255 6.282885 
6.220984 0.027196 6.277732 
4.131102 4.140060 0.035374 
PRIMCOORD
36 1
Li	      8.28055      2.17984      6.21075        -0.031600      0.028436     -0.033504
Li	      6.16631      4.20767      2.31935        -0.002008     -0.037270      0.069166
Li	      8.21303      4.26084      4.28448        -0.085830      0.110859      0.065972
Li	      6.15835      2.13508      4.25715        -0.042384      0.003500      0.030174
Li	      8.29471      4.16039      8.32938        -0.029911     -0.000029     -0.064545
Li	      2.15888      2.09085      4.21499         0.062830     -0.071662      0.064647
Li	      4.16214      4.10565      4.29446         0.090485     -0.053080      0.012026
Li	      4.14208      2.08406      6.06780        -0.034087     -0.045984     -0.114170
Li	      4.15804      8.28182      4.29720         0.004908      0.016830      0.002770
Sc	      8.21777      8.36359      8.43573         0.049541     -0.007627     -0.019439
Mn	      0.08066      2.03437      2.09967         0.041141      0.076215     -0.049110
Cr	      6.20817      6.27506     12.50543         0.036410      0.062982     -0.016235
Fe	      4.04563      2.09215      2.22543         0.186632      0.045566      0.030198
Co	      6.33719      4.15422      6.20252        -0.257090      0.021641     -0.118441
Co	      2.09695      6.17730      4.20744        -0.063443     -0.050990      0.043478
Co	      2.08279      4.16854      6.23767         0.012555     -0.022594      0.020664
Co	      6.24279      6.21367      8.40174        -0.112134     -0.031927     -0.116454
Ni	      4.14775      6.25886      6.25271        -0.104349      0.041419     -0.044906
O	      2.02363      2.07471      2.15438        -0.251290     -0.094306      0.030953
O	      4.15981      4.20401      2.01213         0.025443      0.080759     -0.030940
O	      4.15938      2.11991      4.06509         0.005996      0.029618      0.053783
O	      6.24209      4.13882      4.43458         0.099128      0.009680     -0.047689
O	      6.24686      2.05653      6.43798        -0.057884     -0.081873      0.139800
O	      8.34007      4.17940      6.26272        -0.092193      0.016628     -0.005019
O	      2.07020      4.31126      4.33598         0.040199      0.123208      0.062880
O	      4.01218      6.22975      4.12162        -0.129677     -0.027932     -0.167620
O	      4.06911      4.20382      6.30041         0.051523     -0.070358      0.006845
O	      6.16512      6.30683      6.34724         0.257298      0.175167      0.168565
O	      6.23532      4.08803      8.17167         0.050563     -0.324023      0.159236
O	      8.38070      6.21471      8.54767        -0.052446     -0.028385      0.031136
O	      2.06848      6.10950      6.13926        -0.119378     -0.023279     -0.218794
O	      4.25511      8.35760      6.38527         0.025998      0.022771     -0.029756
O	      4.14471      6.28809      8.37012         0.203246     -0.042245      0.126173
O	      6.16051      8.29980      8.25737         0.017914      0.253295     -0.067846
O	      6.39963      6.22656     10.48146         0.209418      0.018211      0.051317
O	      8.31519      8.11541     10.47551        -0.005524     -0.123223     -0.025315
