# total energy = -212.80140435 eV
 
CRYSTAL
PRIMVEC
-0.017033 6.245648 6.337793 
6.253012 0.020770 6.299538 
4.189988 4.159953 -0.007591 
PRIMCOORD
36 1
Li	      2.18754      8.25726      6.37251         0.024317     -0.017679      0.024127
Li	      2.12659      6.14626      8.35685        -0.006225      0.026142     -0.089075
Li	      4.23639      8.27929      8.39098         0.016621      0.012279      0.008338
Li	      6.22783      8.37813     10.37867        -0.024352      0.002745     -0.001575
Li	      4.18411      4.14100      4.18365         0.019407     -0.003663      0.055210
Li	      4.16152      8.34733      4.29845         0.006976      0.006831      0.118389
Li	      6.22445      8.35900      6.46330        -0.027529      0.030840      0.015684
Li	      4.10348      6.39315      6.45539        -0.038469      0.080406      0.057759
Li	      6.12550      6.39067      8.38557        -0.011280      0.022752     -0.042292
Sc	      2.06972      6.26363      4.26031        -0.051304     -0.016774      0.122304
Mn	      4.14776      2.10663      6.30099         0.011401      0.075380     -0.006926
Cr	      4.20236     10.28898      6.34011         0.102318      0.030866     -0.006750
Fe	      0.06981      2.04660      2.12008        -0.060232     -0.059850     -0.110718
Fe	      2.04925      2.16536      4.21027        -0.029380      0.018213      0.087590
Co	      6.22857      4.17342      6.26950         0.291511     -0.071740      0.248438
Cu	      4.18057      6.20061     10.47901        -0.012343      0.065535      0.069200
Ni	      2.09437      4.14230      2.11231        -0.053391     -0.014815     -0.025201
Ni	      4.07853      4.25218      8.40673         0.100266     -0.083925     -0.042259
O	      4.16222      6.23551      8.50724        -0.021880      0.080964     -0.045646
O	      6.31192      8.33683      8.42351        -0.071468      0.019298      0.027497
O	      2.02864      2.10370      2.20737         0.101200     -0.139245     -0.051978
O	      4.15985      4.22796      1.97241         0.058558     -0.057195      0.089579
O	      4.11117      2.01500      4.38396         0.040242      0.082240      0.044112
O	      6.34679      4.23302      4.40717        -0.225081     -0.136704     -0.027949
O	      6.09657      2.05523      6.35296         0.002600     -0.089952     -0.097353
O	      8.38962      4.27909      6.32599        -0.176540      0.016996     -0.118468
O	      2.08313      4.15123      4.13775        -0.012542      0.024120      0.089775
O	      4.19963      6.24084      4.12932        -0.042419      0.027562      0.019393
O	      4.21407      3.99630      6.30568         0.097426     -0.029513     -0.048430
O	      6.40016      6.19419      6.25528         0.080208      0.138186      0.065322
O	      6.25659      4.09830      8.17699        -0.181789      0.133495     -0.299633
O	      8.39349      6.25601      8.30333        -0.042390      0.021871     -0.069492
O	      1.97827      6.27637      6.26941         0.045825      0.000398     -0.014059
O	      4.17037      8.44443      6.37203         0.010899     -0.139006     -0.021798
O	      6.20470      6.25883     10.67852         0.077854      0.017757     -0.090072
O	      8.36677      8.37478     10.46791         0.000985     -0.074815      0.066960
