# total energy = -212.27143465 eV
 
CRYSTAL
PRIMVEC
0.019741 6.118360 6.328591 
6.330249 0.014906 6.332795 
4.239194 4.100498 -0.009071 
PRIMCOORD
36 1
Li	      6.42762      6.11055     12.55067        -0.043899      0.059045     -0.017306
Li	      8.42448      2.06984      6.31055        -0.077693      0.069861     -0.021951
Li	      8.51748      4.11140      4.30390        -0.014401      0.001523      0.104147
Li	      4.24614      6.15491      2.25416        -0.000123     -0.029939     -0.033055
Li	      6.20132      6.19220      4.20366        -0.016262      0.003840     -0.022490
Li	      8.48321      6.12571      6.32206         0.034774     -0.040592      0.019265
Li	      4.22031      8.02475      4.35237        -0.027389      0.040506      0.020706
Li	      2.22616      6.12268      4.29850        -0.011408     -0.018650      0.008072
Li	      4.15609      6.14643      6.20717        -0.008037      0.006510      0.015004
Sc	      6.33078      6.14182      8.47279         0.026677      0.085452     -0.129224
Mn	      6.39348      8.16001     10.59698         0.307282      0.244863     -0.079543
Cr	      8.48507      8.16081      8.46318         0.061297     -0.018462      0.032785
Fe	      2.17735      4.05423      2.07656         0.004468      0.051913     -0.095554
Fe	      6.36992      4.13422      6.24395         0.127728      0.042460      0.093904
Co	      4.18585      2.05252      2.11888         0.271339     -0.367777     -0.303535
Cu	      4.19879      4.15940      4.21371        -0.009178      0.121335      0.005819
Cu	      2.08946      4.06680      6.22747        -0.174987     -0.063465      0.138500
Ni	      2.14339      6.19393      8.37809        -0.147719     -0.020469      0.065570
O	      4.23460      6.08463      4.20681        -0.020862     -0.014090      0.033791
O	      2.09828      5.93438      6.39862         0.066411     -0.032073     -0.206267
O	      2.17635      2.07803      2.04703        -0.163399     -0.063275      0.029763
O	      4.23316      3.98000      2.16778        -0.070072      0.285673      0.014854
O	      4.41535      2.13357      4.03229        -0.087251     -0.041080      0.085215
O	      6.29340      4.05083      4.24221         0.002808     -0.162158     -0.026981
O	      6.32255      2.14121      6.13134        -0.018630     -0.129013      0.030020
O	      8.32570      4.12751      6.42902        -0.006227      0.014249     -0.150186
O	      2.20140      4.07279      4.05978        -0.044685     -0.024906      0.031850
O	      4.21216      4.07799      6.37801        -0.118775      0.022334      0.065796
O	      6.36157      6.19189      6.32726        -0.006678      0.039142     -0.004722
O	      6.28483      4.07943      8.36133        -0.062070      0.077061     -0.078470
O	      8.41972      6.13518      8.40416         0.040408      0.207517      0.060727
O	      4.39605      8.18326      6.53191         0.179099      0.057761      0.000992
O	      4.22803      6.17601      8.46566         0.091563     -0.224547      0.060459
O	      6.48300      8.23495      8.62255        -0.036035     -0.119408      0.058917
O	      6.32061      6.27925     10.53466         0.027980     -0.032323      0.107262
O	      8.35021      8.20046     10.46018        -0.076052     -0.028819      0.085865
