# total energy = -212.53353169 eV
 
CRYSTAL
PRIMVEC
-0.087145 6.276787 6.341393 
6.170843 -0.055584 6.310431 
4.118528 4.168723 -0.041968 
PRIMCOORD
36 1
Li	     10.18767      4.17710      6.39265        -0.102691      0.035323      0.043782
Li	      4.03822      2.17682      2.20498        -0.089847      0.076471      0.014675
Li	      8.15436      4.26148      4.29697         0.019629     -0.002842      0.163760
Li	      4.05983      6.13298      2.08035         0.050561     -0.042115     -0.037008
Li	      2.19367      4.11678      2.03428         0.044906     -0.106830     -0.084956
Li	      2.15803      2.07396      4.16617         0.108961     -0.017595     -0.101154
Li	      4.05907      4.07912      4.14233        -0.016913     -0.041298     -0.093840
Li	      4.10485      2.05956      6.19599         0.072836     -0.015364     -0.091600
Li	      6.20520      4.09392      6.19481         0.129756     -0.090449     -0.058606
Sc	      6.07624      4.15219      2.13129        -0.225467      0.296137     -0.131847
Mn	      6.12693      6.21663      8.43708         0.080143      0.065490      0.017672
Cr	      6.11708      4.14790     10.53529         0.053333      0.020542      0.141142
Fe	      8.16745      2.12000      6.35113        -0.212938     -0.162208      0.096011
Fe	      4.12788      6.16057      6.22462        -0.149964      0.284055     -0.003913
Co	      8.17268      6.23874     10.53761        -0.000042     -0.079217     -0.017597
Cu	      6.04343      2.11919      4.27062        -0.004950      0.202631     -0.025988
Cu	      2.00152      4.12208      6.23743        -0.075293      0.008468     -0.069216
Cu	      4.08637      4.12118      8.38612        -0.110361     -0.071007      0.029576
O	      6.17678      2.03684      6.17241        -0.040184     -0.050670      0.485056
O	      8.24857      3.90710      6.27627         0.025850      0.871003     -0.067408
O	      3.91233      4.24880      6.21334         0.265221     -0.215564      0.300641
O	      2.04610      2.05185      1.93252         0.042738     -0.345959      0.657188
O	      4.14556      4.15609      2.05925         0.143842     -0.000922      0.061743
O	      4.13963      2.01655      4.21533        -0.237072      0.130776     -0.119958
O	      6.19800      4.12774      4.13946        -0.147664     -0.156247      0.099732
O	      1.92218      4.34544      4.21999        -0.034617      0.202135     -0.109433
O	      3.96126      6.36715      4.21323         0.012595      0.111347     -0.002965
O	      6.11552      6.18686      6.50909         0.132889      0.045908      0.154718
O	      6.05801      4.28321      8.52979        -0.003098      0.193543      0.069349
O	      8.08074      6.31026      8.59214        -0.177782     -0.117356      0.102261
O	      2.04922      6.41144      6.23901         0.016430     -0.420770     -0.157354
O	      4.13943      8.26180      6.19683        -0.012295     -0.070245     -0.107516
O	      4.15644      6.14951      8.34954         0.213623      0.117064     -0.042444
O	      6.16165      8.22943      8.50279         0.077248     -0.384291     -0.264914
O	      6.22023      6.20654     10.40747         0.005185     -0.139080     -0.167691
O	      8.20093      8.18151     10.69647         0.145434     -0.130862     -0.681899
