# total energy = -213.04450993 eV
 
CRYSTAL
PRIMVEC
-0.029866 6.225341 6.180424 
6.256402 -0.044987 6.195407 
4.149369 4.138723 -0.008370 
PRIMCOORD
36 1
Li	     10.37214      4.11770      6.20757         0.085465      0.028223     -0.082003
Li	      6.23559     10.31691      8.29019         0.172073     -0.114777      0.060960
Li	      4.17824      2.04338      2.11018         0.108450     -0.114175      0.042810
Li	      4.13822      0.03134      4.11133        -0.030806     -0.003091     -0.184672
Li	      2.13117      2.01117      4.12846         0.001717     -0.120948      0.081773
Li	      4.16001      4.11369      4.12635         0.144084     -0.014344      0.084398
Li	      4.16745      1.98707      6.13127        -0.043718      0.056400     -0.085438
Li	      6.24380      4.13657      6.13517        -0.083633      0.032361     -0.161789
Li	      0.03954      4.13464      4.11205        -0.041709     -0.034735      0.068703
Sc	      8.36638      8.28755     12.34175         0.049815     -0.468227     -0.328237
Mn	      4.11350      6.20351      2.07446         0.049015      0.027046      0.213476
Cr	      6.10679      2.13019      4.14137         0.173933      0.072722     -0.170004
Fe	      2.06001      4.14895      6.08484        -0.010762     -0.060550      0.331636
Fe	      6.14732      6.16144      8.24524        -0.009820      0.340938      0.029167
Co	      2.06917      4.14495      2.07893         0.173455     -0.124073     -0.033266
Ni	      2.05181      6.20392      4.12912        -0.055071      0.204935      0.176808
Ni	      4.16700      6.18662      6.15650         0.024483     -0.031486     -0.086884
Ni	      4.13428      4.14108      8.24726        -0.114207      0.037739      0.001490
O	      1.92087      2.17630      2.09250        -0.129189     -0.152135     -0.005766
O	      4.00051      4.29701      2.06847        -0.003348      0.073053      0.014908
O	      4.32028      2.01094      4.12480        -0.211899      0.043085      0.021687
O	      6.27694      3.94146      4.11319        -0.052840     -0.040376      0.063969
O	      6.27945      2.03094      6.22076         0.043671      0.002480      0.197075
O	      8.33929      4.07906      6.36062        -0.006990      0.177310      0.522835
O	      2.05250      4.18148      4.07299         0.023000     -0.400047     -0.554116
O	      4.07581      6.22342      3.99343         0.371899      0.027543     -0.254902
O	      4.03412      4.17445      6.22528         0.114665     -0.158943     -0.089827
O	      6.20873      6.28007      6.24463         0.158649     -0.157568     -0.107073
O	      6.30601      4.06915      8.26182        -0.054025     -0.184932     -0.027652
O	      8.38381      6.08449      8.25476         0.051456      0.316552     -0.267336
O	      2.10555      6.16134      6.18794        -0.180051      0.219832      0.206744
O	      4.19737      8.24278      6.16822        -0.167616      0.243854      0.008139
O	      4.23402      6.15314      8.22883        -0.232320     -0.002177      0.019666
O	      6.22753      8.21573      8.29055        -0.060387      0.017252     -0.087887
O	      6.29041      6.32376     10.21082        -0.308368     -0.035993      0.167840
O	      8.18003      8.20877     10.27939         0.050931      0.297253      0.212772
