# total energy = -215.67941717 eV
 
CRYSTAL
PRIMVEC
0.006070 6.313879 6.370043 
6.067242 0.040645 6.336272 
4.066579 4.208342 0.005358 
PRIMCOORD
36 1
Li	      6.14671     10.49953      8.55912         0.057417      0.013001      0.009131
Li	      4.03946      6.31203     10.48752        -0.038019     -0.033062     -0.024381
Li	      6.12940      8.40012     10.53047         0.019714     -0.065337      0.015956
Li	      4.03253      6.33069      2.20151        -0.000880      0.022721     -0.048899
Li	      6.00068      4.32477      6.29345         0.018003      0.030763     -0.050749
Li	      6.06100      4.27109     10.53941         0.040231      0.059499     -0.003264
Li	      6.11328      8.42638      6.39106        -0.016187     -0.001874      0.024167
Li	      4.09461      6.31735      6.37217         0.010884      0.046946      0.089102
Li	      6.06193      6.33396      8.57595        -0.007550     -0.005751      0.094150
Sc	      8.05322      8.43135     12.65713        -0.018040     -0.098069     -0.004710
Mn	      4.00645      2.15479      6.31503        -0.062858     -0.120216      0.016614
Cr	      8.03038      4.26826      8.46492         0.004876     -0.036258      0.202790
Fe	      0.07542      6.26740      6.31864         0.009597      0.008764      0.257399
Fe	      4.19617      8.31806      8.49544        -0.057309     -0.090349     -0.012448
Co	      6.06469      6.34198      4.23465        -0.023142     -0.054996      0.008679
Co	      4.07685      4.30265      8.48047        -0.032653      0.109106      0.114566
Cu	      4.10267      4.27417      4.23457        -0.125061     -0.348086      0.074661
Cu	      2.06389      6.32884      4.25985        -0.035859      0.042726      0.081378
O	      4.08857      6.23092      4.27154        -0.027406      0.082127     -0.069026
O	      6.18305      6.30535     10.72831        -0.042990     -0.036023     -0.417965
O	      2.05287      2.21606      2.19846        -0.048896      0.114824      0.023132
O	      3.98212      4.10871      2.06478        -0.096932      0.131871      0.359575
O	      3.96183      2.17714      4.27405        -0.056471      0.164752     -0.041854
O	      5.99098      4.43883      4.22682         0.492108      0.075002     -0.008391
O	      5.96801      2.05953      6.32360        -0.035954      0.076409     -0.025611
O	      8.11409      4.32075      6.41167        -0.105613      0.009845     -0.049240
O	      2.11295      4.19324      4.13787        -0.247221     -0.142288     -0.237648
O	      4.04170      4.05777      6.40583         0.007460      0.071553     -0.267499
O	      6.18720      6.34967      6.14042         0.038685      0.033599     -0.053149
O	      5.96410      4.23911      8.46383        -0.017745     -0.028978      0.050069
O	      8.05235      6.29188      8.24833         0.021586     -0.031058     -0.059797
O	      1.99158      6.37985      6.50506         0.177966      0.020319      0.009031
O	      4.04880      8.48050      6.49178         0.004600     -0.100677     -0.068877
O	      4.10195      6.38779      8.50223        -0.000782     -0.130617      0.034339
O	      6.18712      8.43858      8.52620         0.164410      0.002624      0.050844
O	      8.12430      8.38996     10.58544         0.030032      0.207188     -0.072075
