# total energy = -89.48458080 eV
 
CRYSTAL
PRIMVEC
1.987261 3.976879 1.935262 
3.903975 -1.958800 -1.923799 
0.007466 3.990492 -3.905047 
PRIMCOORD
16 1
Li	      1.84064      1.93270     -0.03764        -0.315755     -0.440789      0.523652
Li	      3.70236      1.93204     -1.88984         0.638220     -0.737117      0.085455
Li	      0.03534      1.91353     -1.86562        -0.540623     -0.290591      0.508919
Li	      1.84865      3.76466     -1.78892        -0.710597     -0.030642     -0.071304
Mn	      0.02135      3.78834     -3.71149        -3.609214      1.104235     -2.137600
Mn	      3.73047      3.81916     -0.05112         3.039955      0.955521      3.328514
Ni	      3.74121      5.66016     -1.82239         1.202699      2.417516     -0.871483
Ni	      3.74769      3.80591     -3.65847         0.846168      2.210613     -1.956461
O	      3.68789      3.80720     -1.77941         0.789818     -1.333197     -1.507596
O	      3.73853      1.98191     -3.79601         0.912145     -2.699126     -0.673530
O	      3.86340      1.95679     -0.00109         1.068722     -1.404898      0.891791
O	      3.60433     -0.08028     -1.81056         1.750497     -1.924773     -0.097105
O	      1.99970      3.76951      0.07575        -2.703271      0.611857      1.741366
O	      1.88837      1.72772     -1.85025        -1.054120     -0.129979      0.424383
O	      1.86835      5.85484     -1.87111        -1.478321      1.253079      0.208999
O	      1.80467      3.78638     -3.79761         0.163677      0.438292     -0.398001
