# total energy = -215.01377899 eV
 
CRYSTAL
PRIMVEC
-0.022785 6.174400 6.251950 
6.252748 -0.017297 6.246290 
4.163513 4.107504 -0.006536 
PRIMCOORD
36 1
Li	      8.24863      2.06510      6.33605        -0.165943      0.160008      0.036910
Li	      6.21535      2.10016      4.26228        -0.036221      0.015526      0.102328
Li	      6.32826      2.03695      8.16860         0.034520      0.004516     -0.199668
Li	      2.04282      4.04434      2.08133        -0.103983     -0.018649     -0.103806
Li	      4.14117      4.09898      4.21398         0.127403     -0.097478     -0.044627
Li	      4.30462      2.06424      6.16099         0.119784     -0.112216     -0.041025
Li	      6.19459      4.03927      6.22784         0.127442     -0.196778     -0.042232
Li	      4.21387      8.16862      4.17506        -0.042741      0.123888     -0.076044
Li	      6.22941      8.16561      6.19534         0.013241     -0.002896     -0.036688
Sc	      2.10376      6.09879      4.26905        -0.342856      0.027414     -0.267838
Mn	      4.14744      4.10314      8.29389         0.235153     -0.156568      0.295850
Cr	      8.32199      4.08474      4.23354        -0.027960      0.067351     -0.169608
Fe	      4.12280      2.16099      2.08732        -0.004085     -0.016256      0.455820
Fe	      6.29366      6.10749      8.23420         0.072387      0.022224      0.560935
Co	      2.08862      0.00071      2.08287        -0.163974      0.124460      0.333115
Co	      4.13777      6.17945      6.26903         0.123726      0.050321      0.018004
Ni	     10.37902      4.11858      6.23963        -0.127304     -0.011274     -0.089221
Ni	      6.20680      6.21050      4.18402         0.231170     -0.111511     -0.058806
O	      6.25307      1.93143      6.22317         0.114546      0.390933      0.009862
O	      2.12931      1.94059      2.12549         0.041026     -0.139237     -0.108214
O	      4.33460      4.07325      2.03395         0.139259      0.168831      0.276832
O	      4.15036      1.96484      4.05686         0.000755      0.122185     -0.039954
O	      6.34348      4.12801      4.01046        -0.189702     -0.050482     -0.156019
O	      8.36430      4.09916      6.12401        -0.043552     -0.122790      0.407517
O	      2.07689      4.13364      4.11001         0.013102      0.232616      0.067102
O	      4.16861      6.15962      4.37754        -0.185988      0.077026      0.092018
O	      4.13701      4.23856      6.38893        -0.172045     -0.264100     -0.020798
O	      6.06365      6.17139      6.31203         0.113101      0.123884     -0.115103
O	      6.08860      4.16710      8.30247        -0.278157     -0.072285     -0.024059
O	      8.25237      6.29785      8.33353         0.035272      0.091939      0.046151
O	      2.13092      6.18019      6.36194        -0.059189     -0.003635     -0.054109
O	      4.14419      8.17033      6.40018        -0.029649     -0.056535     -0.351860
O	      4.09039      6.11490      8.30648         0.038908     -0.027626     -0.134505
O	      6.30467      8.25859      8.32719         0.040452      0.004664     -0.114888
O	      6.16041      6.15500     10.34743         0.339737     -0.095322     -0.301637
O	      8.31929      8.26134     10.23484         0.012367     -0.252149     -0.151735
