# total energy = -218.22465762 eV
 
CRYSTAL
PRIMVEC
0.004856 6.273465 6.188064 
6.279037 0.010853 6.181488 
4.189985 4.181528 0.003847 
PRIMCOORD
36 1
Li	      6.23767      6.39257     12.12752        -0.030960     -0.041708      0.010216
Li	      6.36992     10.35511      8.30162        -0.016007      0.049454      0.003588
Li	      4.21878      2.12603      2.09088        -0.011562     -0.014824      0.018322
Li	      4.39223      6.14341     10.33998        -0.024410      0.025290      0.012529
Li	      6.34338      8.27185     10.30329        -0.021941      0.058645     -0.038215
Li	      4.40014      2.02702      6.11443         0.029816     -0.029288      0.024190
Li	      6.33900      4.05238      6.14730         0.014779     -0.015281      0.012360
Li	      6.12958      4.39919     10.32217         0.029900     -0.044660     -0.033300
Li	      8.21042      6.41376     10.32241         0.031434     -0.036722     -0.029141
Sc	      6.35575      6.19009      4.18572        -0.053337     -0.012027     -0.037270
Mn	      4.21244      4.16274      4.15227        -0.054504      0.106865     -0.099504
Cr	      6.26162      2.12164      8.22306         0.140956     -0.099412      0.109157
Fe	      8.29854      4.27017      8.17052         0.089395     -0.122920      0.106284
Fe	      6.16284      8.46222      6.22812         0.048988      0.131897     -0.080479
Co	      8.38957      8.34559     12.29036        -0.103829      0.098659      0.088504
Co	      4.14607      6.26831      6.22477        -0.020363      0.075117     -0.111792
Co	      8.37122      8.37747      8.28630         0.047182     -0.099976      0.058384
Ni	      6.24475      6.30913      8.31313         0.032103     -0.020328     -0.055692
O	      6.29217      6.28992     10.25946         0.002675      0.020369      0.144044
O	      2.01409      2.20712      2.10377        -0.122055     -0.001905      0.072159
O	      4.08929      4.26666      2.22353         0.032187     -0.001862      0.180810
O	      4.18495      2.26449      4.15692         0.008957     -0.025058      0.046081
O	      6.09835      4.18779      4.14305        -0.020001     -0.046806      0.050366
O	      6.43657      2.06143      6.28774         0.050701     -0.085362      0.025029
O	      8.38553      4.06063      6.25473         0.089395     -0.054164     -0.158372
O	      2.21883      4.17612      4.15274         0.039502      0.009075      0.050935
O	      4.19990      6.13045      4.16498         0.030730     -0.023535      0.041137
O	      4.08298      4.31582      6.15133         0.075270     -0.011668     -0.051588
O	      6.10224      6.39064      6.23272         0.001331     -0.088213     -0.073386
O	      6.24281      4.12780      8.24510        -0.053068      0.006315     -0.036862
O	      8.43970      6.31508      8.16268         0.005531      0.058171     -0.004000
O	      2.20406      6.32676      6.22032         0.072605     -0.025011     -0.021303
O	      4.16683      8.21581      6.22967        -0.146837     -0.021591     -0.002585
O	      4.20433      6.11115      8.13161        -0.120487      0.029641     -0.066285
O	      6.44064      8.36264      8.15402        -0.010412      0.079786      0.069565
O	      8.39445      8.37497     10.22161        -0.063664      0.173034     -0.223884
