# total energy = -219.84435150 eV
 
CRYSTAL
PRIMVEC
0.001674 6.211476 6.221287 
6.178538 -0.005005 6.227880 
4.124130 4.150483 -0.008695 
PRIMCOORD
36 1
Li	      2.09072      8.22951      6.14824         0.026943      0.006116     -0.036321
Li	      2.09794      6.21217      8.25095         0.200915     -0.081871     -0.063710
Li	      8.22465      4.16653      4.15495         0.018560     -0.021813     -0.139130
Li	      6.17176      2.09325      4.19601         0.043771     -0.031014     -0.061558
Li	      6.20452      6.19731      4.18257         0.015557      0.032252      0.035202
Li	      8.22707      6.16922      6.19928        -0.020531      0.063859      0.049240
Li	      8.18197      6.26195     10.45876        -0.032630     -0.035718     -0.093438
Li	      6.10093      8.30887      6.21764         0.011002      0.009140      0.019518
Li	      4.12743      6.28129      6.19307         0.060515      0.011218      0.048534
Sc	      4.08970      4.14159      4.25492        -0.083991      0.038427      0.337056
Mn	      8.17781      8.27304      8.31198        -0.106813      0.276217     -0.050921
Cr	      6.26691      4.17992      6.18032        -0.170203      0.094053      0.313967
Fe	      4.12104      8.21026      8.31299         0.219709     -0.381251     -0.176857
Fe	      0.13425      1.99450      2.04466        -0.275620      0.304299      0.189111
Co	      6.22623      6.23095     12.35835        -0.019226      0.087506      0.055006
Co	      2.08789      4.17309      2.07877        -0.076385      0.131971      0.203419
Co	     10.28716      8.29246     10.37690        -0.077436     -0.002774     -0.140736
Co	      6.17271      6.20302      8.29432        -0.049723      0.007607      0.022434
O	      2.10519      2.13338      2.04936        -0.050434      0.681356     -0.020908
O	      4.18561      4.15385      2.11443        -0.966589      0.020729     -0.135848
O	      4.12306      2.11683      4.01003        -0.025555      0.053964      0.312451
O	      6.14995      4.15881      4.26762         0.026260      0.003853     -0.104530
O	      6.19671      2.07418      6.32613        -0.029594     -0.062107     -0.062725
O	      8.30977      4.17164      6.33196         0.035640     -0.059573      0.517442
O	      1.93901      4.13602      4.05885         0.163633      0.001402     -0.572410
O	      4.10681      6.29720      4.02467         0.038806      0.020871      0.035062
O	      4.20474      4.14560      6.32086        -0.019089     -0.018936     -0.004729
O	      6.20012      6.13630      6.37433         0.047397     -0.088519     -0.024355
O	      6.08909      4.17729      8.31494         1.247974     -0.106626     -0.038461
O	      8.16326      6.22641      8.30689         0.163706     -1.233836     -0.076450
O	      1.86799      6.21414      6.22064         0.042441     -0.011302     -0.019503
O	      4.12327      8.41952      6.14978        -0.115434     -0.032179     -0.155415
O	      4.20454      6.22126      8.25503         0.103705      0.413620     -0.056668
O	      6.21055      8.12583      8.31208        -0.389203      0.016901     -0.077851
O	      6.14954      6.04416     10.27938         0.003236     -0.098333     -0.117943
O	      8.34613      8.29103     10.20505         0.038690     -0.009512      0.092029
