# total energy = -217.54324995 eV
 
CRYSTAL
PRIMVEC
0.029700 6.194749 6.399415 
6.188535 0.028355 6.401056 
4.125806 4.130730 0.018949 
PRIMCOORD
36 1
Li	      2.16601      8.20419      6.40998         0.040122     -0.025603     -0.057093
Li	      2.11946      6.18543      8.47955        -0.002224      0.035619     -0.056853
Li	      8.30234     10.30529     10.67721        -0.015749     -0.031426     -0.016645
Li	      6.19596      2.11004      8.46222         0.017173     -0.087182     -0.026823
Li	      6.15032      4.14951      6.44200         0.013383     -0.015330     -0.087268
Li	     10.28397      8.35000     10.77086        -0.004533     -0.001914      0.173442
Li	      6.20855      8.28835      6.47303        -0.048397      0.016469     -0.053352
Li	      4.08762      6.25508      6.48347        -0.082348      0.058072     -0.062583
Li	      6.13918      6.20703      8.50831        -0.031634      0.010242      0.016946
Sc	      8.10571      4.19892      8.47365         0.428259      0.069103     -0.056422
Mn	      2.10077      6.23395      4.33708         0.028764      0.066973      0.228870
Cr	      6.22934      8.28260     10.65464         0.001165      0.057500      0.206610
Fe	      4.19434      8.11687      8.41038        -0.137930      0.111655      0.044972
Fe	      6.16913      6.13103      4.33174         0.038520      0.087492     -0.112192
Fe	      4.14557      4.14009      4.22118        -0.048963      0.012547      0.007143
Co	      4.16916      4.15112      8.51663         0.442956      0.529065     -0.546535
Cu	      4.14024      2.09163      6.39538        -0.029108     -0.042936      0.003761
Ni	      0.06809      6.18163      6.41493         0.040504     -0.056547      0.089920
O	      6.38499      6.22560      6.24819        -0.045631     -0.012256      0.243811
O	      2.09125      2.10608      2.28793        -0.119195      0.003543     -0.049981
O	      4.09004      4.09234      2.20846         0.015505      0.030879     -0.044375
O	      4.15268      2.10558      4.08926         0.015159     -0.028907     -0.002508
O	      6.11410      4.13853      4.30276         0.103923     -0.115436     -0.037278
O	      6.04655      2.06522      6.28419         0.044927      0.193252      0.046395
O	      8.28705      4.30321      6.41862        -0.183447     -0.004025     -0.000444
O	      2.12639      4.22888      4.25831        -0.088380     -0.050296     -0.044163
O	      4.13983      6.12529      4.37893        -0.127797      0.140471     -0.066361
O	      4.12948      3.97461      6.51997        -0.053140     -0.121529     -0.759302
O	      6.10603      4.16271      8.52896        -0.039622     -0.019954      0.099732
O	      8.29772      6.31166      8.78295        -0.074892     -0.965061      0.210856
O	      2.07927      6.24715      6.21456         0.150774     -0.044454      0.019413
O	      4.14716      8.29535      6.52562         0.025968     -0.067334     -0.237026
O	      4.15672      6.14308      8.50021         0.006913      0.572559      0.070793
O	      6.27775      8.27343      8.65006        -0.197180     -0.068433     -0.006390
O	      6.37559      6.29187     10.71689         0.028734     -0.027181     -0.146702
O	      8.24054      8.21451     10.56023        -0.112579     -0.209637      1.007631
