# total energy = -90.22966628 eV
 
CRYSTAL
PRIMVEC
1.997721 3.997810 1.945448 
3.924522 -1.969109 -1.933924 
0.007506 4.011495 -3.925600 
PRIMCOORD
16 1
Li	      1.86006      1.95310     -0.03804        -0.266272     -0.368888      0.439275
Li	      3.74143      1.95244     -1.90979         0.544040     -0.648140      0.085474
Li	      0.03571      1.93372     -1.88531        -0.452742     -0.260235      0.444516
Li	      1.86817      3.80440     -1.80780        -0.610641     -0.033495     -0.056954
Mn	      0.02158      3.82832     -3.75066        -3.160598      1.009493     -1.944021
Mn	      3.76984      3.85946     -0.05165         2.608293      0.815291      2.861309
Ni	      3.78069      5.71991     -1.84162         0.987070      2.087893     -0.765177
Ni	      3.78725      3.84607     -3.69708         0.691908      1.898011     -1.663441
O	      3.72681      3.84738     -1.79819         0.678146     -1.144384     -1.267528
O	      3.77798      2.00283     -3.83608         0.824582     -2.345324     -0.588148
O	      3.90418      1.97744     -0.00110         0.967772     -1.178498      0.762628
O	      3.64237     -0.08112     -1.82967         1.550525     -1.744567     -0.107407
O	      2.02080      3.80929      0.07655        -2.264354      0.521499      1.540232
O	      1.90830      1.74596     -1.86978        -0.927235     -0.135550      0.411761
O	      1.88807      5.91663     -1.89087        -1.239331      1.125671      0.199146
O	      1.82372      3.82634     -3.83769         0.068838      0.401223     -0.351665
