# total energy = -219.05462501 eV
 
CRYSTAL
PRIMVEC
-0.045895 6.324551 6.365963 
6.239838 0.009396 6.310955 
4.161979 4.182241 0.003932 
PRIMCOORD
36 1
Li	      6.22179      4.24165      2.23035        -0.020501      0.002491      0.020735
Li	      4.09262      6.30259      2.32017        -0.065568     -0.057489      0.000693
Li	      2.08874      4.22591      2.29831         0.051721      0.044632     -0.047708
Li	      1.90675      2.32548      4.09685         0.027583     -0.051724     -0.071038
Li	      3.90099      4.33920      4.07654         0.016621     -0.028557      0.019132
Li	      0.14896      4.08773      4.03113        -0.034217     -0.000567      0.072253
Li	      2.11645      6.09346      4.10116        -0.027150      0.029099     -0.071952
Li	      2.03590      4.13751      6.01380         0.004709      0.090926     -0.059828
Li	      6.26551      6.25380      8.50077         0.066223      0.051512      0.054546
Sc	      4.16141      6.19760      6.19508        -0.204942     -0.038412     -0.104421
Mn	      4.14052      6.33490     10.56742         0.068725      0.067925      0.024388
Cr	      8.22704      6.34453      6.37462         0.168745     -0.101086     -0.039083
Fe	      0.09480      6.29114      6.39848        -0.053426     -0.078164      0.036290
Fe	      2.09102      2.10122      0.13407        -0.005753      0.091208     -0.109085
Fe	      4.21171      2.17031      2.15479         0.185257     -0.138471      0.213413
Co	      6.28174      2.11116      4.25304        -0.056280     -0.013668     -0.052039
Co	      8.23994      8.34347      8.49165         0.237317     -0.261154      0.009319
Cu	      6.17735      4.20493      6.39516        -0.007789      0.072039      0.087397
O	      2.00880      4.22064      4.14701        -0.080850     -0.091250      0.102668
O	      2.19680      2.13665      2.03826        -0.159149      0.002928      0.061838
O	      4.23482      4.10111      2.01883        -0.019355      0.227670     -0.057181
O	      4.30023      1.98967      4.24425         0.073069     -0.037540      0.055032
O	      6.41751      4.05536      4.35621         0.085056     -0.043411     -0.007445
O	      6.23835      2.09353      6.23424        -0.101608      0.214080      0.040564
O	      8.47614      4.23655      6.18435        -0.005232     -0.011931     -0.034020
O	      4.12849      6.27673      4.27927        -0.023135      0.092141      0.000236
O	      3.96288      4.13017      6.36379        -0.089816      0.168670     -0.250483
O	      6.26290      6.21457      6.32077        -0.001231     -0.245028      0.041034
O	      5.92276      4.19085      8.34045         0.325099      0.291113     -0.250633
O	      8.26830      6.36051      8.30833        -0.144765     -0.299624      0.056882
O	      2.03393      6.46272      6.33069         0.123810     -0.085821     -0.008376
O	      4.11866      8.41168      6.48089         0.076578     -0.020286     -0.126932
O	      4.11944      6.37811      8.64408         0.000382      0.069672      0.043222
O	      6.26962      8.41638      8.71588        -0.308893      0.149711      0.118228
O	      6.10175      6.46349     10.64596        -0.037682      0.012653      0.077665
O	      8.18737      8.60222     10.66790        -0.063552     -0.074288      0.154689
