# total energy = -222.68934110 eV
 
CRYSTAL
PRIMVEC
0.019409 6.245242 6.349685 
6.100121 -0.032596 6.402129 
4.069684 4.201365 -0.025041 
PRIMCOORD
36 1
Li	      6.07583     -0.01783      6.37262        -0.007281      0.013071     -0.066611
Li	      4.09311      2.04861      2.19392         0.009209     -0.021731      0.029937
Li	      4.12141      6.34089     10.48674         0.020421     -0.003346      0.000828
Li	      6.03851      8.22969     10.56280        -0.006501     -0.061112     -0.014707
Li	      4.10633      4.03963      4.20828         0.023533      0.023258      0.047808
Li	      4.06791      2.08683      6.27684         0.019738      0.007667     -0.012710
Li	      4.05149      6.29351      6.49151         0.033896      0.008820      0.016811
Li	      3.98833      4.24643      8.48472        -0.029282     -0.026637      0.018970
Li	      6.07603      6.29875      8.54595         0.002962      0.034370     -0.030189
Sc	      6.03838      4.21427      6.34203        -0.059075      0.117799      0.102984
Mn	      2.11285      2.07840      4.25378        -0.122661      0.000160      0.051464
Cr	      2.05645      6.25277      4.24599        -0.003506      0.009409     -0.072228
Fe	     10.15775      6.18731      8.41513         0.024751      0.278950      0.066521
Fe	      6.05606      4.22836     10.66067         0.004452     -0.060375     -0.189844
Fe	      6.14802      8.30890      6.51013        -0.069586     -0.051404     -0.123626
Co	      2.09153      8.34370      6.34397         0.056476     -0.047297     -0.062694
Co	      6.16305     10.36600      8.50298         0.547668      0.082861      0.064970
Co	      2.11083      4.14617      2.08196        -0.205768      0.047012      0.003702
O	      2.05013      2.14314      1.96480         0.017403      0.255052     -0.094686
O	      4.11746      4.25834      2.10098        -0.201278     -0.227202      0.000721
O	      3.95260      2.06744      4.25805         0.088401     -0.020011     -0.023611
O	      6.09320      4.30891      4.25346         0.000038     -0.097539     -0.113238
O	      6.21102      2.10447      6.44633         0.091897     -0.021177     -0.092490
O	      8.16270      4.01092      6.57032         0.051294     -0.054431      0.037802
O	      2.03472      4.16101      4.12747         0.082791      0.018605     -0.031290
O	      4.13858      6.38261      4.08491         0.038635     -0.026794     -0.016201
O	      4.01386      4.13561      6.38517         0.066781      0.071724      0.101936
O	      6.08304      6.32107      6.40017         0.078773     -0.113070     -0.056832
O	      6.22470      4.08430      8.51821         0.042307     -0.011490     -0.017632
O	      8.20125      6.05780      8.60611        -0.034171     -0.013913     -0.005754
O	      2.05957      6.29992      6.27763        -0.025596     -0.007081      0.076069
O	      4.09604      8.35635      6.22519        -0.157935     -0.015018      0.059345
O	      3.89140      6.20680      8.50329        -0.045983      0.267504      0.015369
O	      6.08695      8.42421      8.42066        -0.214580     -0.468980      0.228337
O	      6.18024      6.16101     10.57830        -0.004242      0.073860      0.038575
O	      8.16943      8.21909     10.76810        -0.113982      0.038486      0.062190
