# total energy = -215.03363877 eV
 
CRYSTAL
PRIMVEC
0.026654 6.295652 6.264852 
6.252357 0.018078 6.273262 
4.179871 4.214215 0.000631 
PRIMCOORD
36 1
Li	      4.10824      4.18410      0.07732        -0.054829     -0.066596      0.068281
Li	      8.36624      2.20620      6.30655         0.060514      0.030660     -0.010518
Li	      4.13714      2.15264      2.11641        -0.038999      0.032860     -0.029341
Li	      6.16010      2.15017      4.23531        -0.046730      0.029004      0.075926
Li	      2.16662      4.15616      2.06116         0.061208     -0.016501      0.019636
Li	      2.13407      2.12210      4.15970         0.024312      0.022413     -0.069668
Li	      4.16812      4.15812      4.18044        -0.059496     -0.025373      0.023995
Li	      4.17316      2.06976      6.20815         0.017706     -0.036129     -0.044661
Li	      4.23235      6.33573      6.25209        -0.010491      0.048031     -0.049197
Sc	      2.11288      6.31798      4.24426         0.062276     -0.090552      0.201808
Mn	      4.15114      0.08899      4.22804        -0.068168     -0.044166      0.200026
Cr	      0.07630      2.07673      2.01764         0.092113     -0.083669     -0.100545
Fe	      6.21242      4.23828      2.07419        -0.005336      0.034473     -0.030174
Fe	      6.23798      8.33121      6.24011         0.214320      0.119385     -0.125368
Fe	      4.19760      4.21968      8.30777         0.028136     -0.093470     -0.093518
Cu	      6.24956      6.34547      8.34263         0.037255      0.054736     -0.018787
Ni	      6.26186      4.23429      6.22683        -0.132269      0.036858     -0.071429
Ni	      4.21898      8.39110      4.19669         0.076366     -0.026769      0.139219
O	      4.18542      1.92546      4.16433        -0.053351     -0.047835     -0.033111
O	      1.95837      2.04147      2.07480        -0.014803      0.036512     -0.002943
O	      4.25907      4.31720      2.10068        -0.066316      0.021052      0.017976
O	      6.40870      4.21606      4.16051         0.039719     -0.006190     -0.164358
O	      6.23595      2.18209      6.45017        -0.012316     -0.140232      0.088895
O	      8.29594      4.21622      6.10544         0.174657      0.023043     -0.097145
O	      2.09257      4.23387      4.26506         0.179798      0.032560     -0.249030
O	      4.15820      6.34626      4.01223         0.022118     -0.122687     -0.070089
O	      4.13327      4.21038      6.32231         0.144147      0.008869      0.023684
O	      6.25242      6.34739      6.41641         0.066272     -0.213896      0.016909
O	      6.23154      4.14066      8.32407         0.062911      0.138750      0.077938
O	      8.48123      6.39173      8.41340        -0.119195     -0.031338     -0.001873
O	      2.13629      6.22490      6.31206         0.010564      0.134392     -0.009573
O	      4.35186      8.38567      6.24710        -0.469048      0.043767      0.112520
O	      4.10771      6.25324      8.49359         0.117865      0.083789     -0.037557
O	      6.35371      8.48762      8.29275        -0.092710     -0.109110      0.263764
O	      6.18806      6.29032     10.32955        -0.118904      0.120388      0.008634
O	      8.39018      8.48357     10.39627        -0.129296      0.102971     -0.030325
