# total energy = -214.11174978 eV
 
CRYSTAL
PRIMVEC
0.025182 6.450940 6.327677 
6.159488 0.011849 6.342173 
4.096588 4.300381 0.018014 
PRIMCOORD
36 1
Li	      4.18780     10.67624      6.38491        -0.063588      0.029477      0.012149
Li	      6.18115     10.64175      8.46665         0.013680      0.025331      0.129342
Li	      4.12934      2.22055      2.16664        -0.063995      0.048229      0.118903
Li	      6.17726      8.72019     10.45311        -0.055847      0.139906     -0.003163
Li	      6.14142      6.40662      4.38022         0.070354     -0.117104      0.023596
Li	      4.17282      4.31896      4.25458         0.142147     -0.070106     -0.036108
Li	      6.11311      4.38409      6.26401         0.033141     -0.005367     -0.172581
Li	      6.16270      8.58460      6.32708        -0.000836     -0.076808     -0.048841
Li	      4.10854      6.42859      6.28351         0.051783     -0.010890     -0.002702
Sc	      4.13859      2.24317      6.27802         0.086976     -0.247280     -0.193183
Mn	      2.09559      8.59112      6.32169        -0.307692      0.290773      0.411262
Cr	      2.06722      4.23046      2.15468        -0.086332     -0.066969     -0.315123
Fe	      4.02875      0.07927      4.18608         0.309661      0.110311      0.283285
Fe	      4.16016      6.31084      2.18548         0.060187     -0.006058     -0.038276
Fe	      6.08435      6.63078      8.39286         0.066416     -0.118528      0.116577
Cu	      4.10963      8.56675      4.27664         0.118762      0.082154      0.017167
Cu	      2.04961      6.41483      4.28210        -0.139506     -0.153401      0.044831
Cu	      4.10940      4.43989      8.27593         0.054013      0.102706     -0.181248
O	      2.05876      6.68717      6.20302        -0.000401      0.051019      0.061771
O	      3.98892      8.61554      6.26342         0.093453     -0.008701     -0.137104
O	      6.29821      8.55139      8.43358        -0.055522      0.154225     -0.055783
O	      2.05045      2.22576      1.95983         0.012853     -0.090839     -0.127329
O	      4.02823      4.35611      2.19788         0.284241     -0.036050     -0.020314
O	      4.14605      2.00623      4.28232         0.110900      0.350138      0.077245
O	      6.32990      4.32850      4.22130        -1.137959     -0.123473      0.071320
O	      6.24645      2.16640      6.49529         0.127355     -0.032105      0.012227
O	      8.22449      4.20752      6.42452         0.033729     -0.097423      0.147985
O	      1.97253      4.21105      4.11726        -0.145810      0.240665      0.269105
O	      4.06462      6.52611      4.14359        -0.096412      0.012062      0.095610
O	      4.12236      4.22886      6.28901        -0.031331      0.226364      0.047323
O	      6.19757      6.42959      6.48364        -0.073147     -0.018789     -0.087517
O	      6.13748      4.25369      8.56909        -0.268858     -0.126848      0.135824
O	      8.20032      6.26393      8.55633        -0.003880      0.066634     -0.118614
O	      4.15526      6.49619      8.54155         0.005865     -0.071138     -0.467783
O	      6.07309      6.37651     10.45937         0.696510     -0.125943      0.008485
O	      8.24210      8.78380     10.73456         0.159092     -0.326175     -0.078337
