# total energy = -214.55363664 eV
 
CRYSTAL
PRIMVEC
0.019910 6.200377 6.394631 
6.198217 0.001773 6.412882 
4.111030 4.124564 0.022139 
PRIMCOORD
36 1
Li	     10.19430      4.12740      6.49944         0.039032     -0.017099      0.005053
Li	      2.08025      2.07844      0.04950        -0.000656     -0.047577     -0.048011
Li	      8.23401      4.14939      4.44877         0.004320     -0.003538     -0.002919
Li	      8.21081      4.14763      8.46565        -0.015924      0.011586      0.016370
Li	      2.09343      2.04586      4.21474        -0.030107      0.025417     -0.034343
Li	      6.26306      4.12940      6.48915        -0.037020      0.027758      0.014267
Li	      2.08381      6.16728      4.27483        -0.022678      0.015515      0.063644
Li	      2.06438      4.14058      6.37774        -0.012314      0.003800     -0.045583
Li	      4.19735      4.09601      8.53752        -0.014911      0.021264      0.048229
Sc	      6.33735      8.24135     10.80038         0.074419     -0.029290     -0.003122
Mn	      2.10619      6.19704      8.53283         0.033671      0.003014     -0.113849
Cr	      4.12370      8.25881      4.31482         0.108023      0.012988      0.018398
Fe	      3.97973      4.13972      4.27473         0.126224      0.098215     -0.014422
Fe	      4.13681      6.16895      6.40579         0.030308     -0.068557     -0.071245
Fe	      6.27188      6.13984      8.54702        -0.172966      0.058336      0.006457
Ni	      6.19597      2.11727      8.44722        -0.001953      0.012163      0.150144
Ni	      4.08392      2.08002      2.10633        -0.014262      0.000476     -0.011226
Ni	      4.12048      2.06865      6.37830        -0.118968      0.173855     -0.062986
O	      8.22828      4.29717      6.41698        -0.001063     -0.179454      0.038892
O	      2.06385      1.90517      2.11740        -0.044077     -0.049850      0.000696
O	      4.25080      4.12796      2.18912         0.050955      0.059086     -0.055678
O	      4.12288      2.14263      4.33646         0.035223     -0.125379     -0.041873
O	      6.13163      4.11628      4.07914         0.016969     -0.011284      0.001646
O	      6.16105      2.09230      6.42805         0.083731      0.005866     -0.067265
O	      2.06501      4.14720      4.22380        -0.188394     -0.008990     -0.031808
O	      4.11230      6.21310      4.33969         0.008111      0.007660     -0.102166
O	      4.14845      4.15522      6.26851         0.003990     -0.150432      0.104140
O	      6.07043      6.17828      6.56420         0.277601      0.022598     -0.088717
O	      6.19007      4.16229      8.69454        -0.002010     -0.045428     -0.037902
O	      8.21337      6.22888      8.35930         0.142370      0.001128      0.129577
O	      2.22728      6.14862      6.59902        -0.315102      0.001956      0.083145
O	      4.15194      8.15598      6.34675        -0.015261      0.199991     -0.023242
O	      4.09338      6.22140      8.46434        -0.063343     -0.101725      0.105293
O	      6.15421      8.29698      8.61578         0.097935      0.033678      0.000602
O	      6.23541      6.15497     10.54226        -0.014841      0.045112      0.116283
O	      8.34060      8.25556     10.75578        -0.047029     -0.002861     -0.046479
