# total energy = -222.24192505 eV
 
CRYSTAL
PRIMVEC
0.004951 6.230206 6.338273 
6.340503 0.026599 6.316139 
4.229913 4.141636 0.015313 
PRIMCOORD
36 1
Li	      2.10940      2.10079      0.09224        -0.009959     -0.083613     -0.056781
Li	      4.18103      2.12909      2.11651         0.074308      0.001049     -0.000706
Li	      0.09680      2.11162      2.18485        -0.064460      0.005774     -0.002355
Li	      8.28545      4.07924      8.48365        -0.125916      0.067578     -0.039606
Li	      4.16986      4.21584      4.09875         0.008367     -0.072724     -0.058464
Li	      6.34909      4.14745      6.42242         0.010685     -0.037827     -0.047946
Li	      0.09124      4.06937      4.16507         0.005912      0.010832     -0.036335
Li	      2.07709      4.16894      6.28520        -0.009186      0.071044     -0.047441
Li	      6.36923      6.17173      8.46462         0.020680     -0.044688      0.019526
Sc	      8.38674      6.27993      6.37905         0.063043     -0.050619     -0.015847
Mn	      6.35449      2.11823      4.21292        -0.065353      0.059921      0.318450
Cr	      4.25754      6.22776     10.54529        -0.025542      0.053508      0.166760
Fe	      4.25572     10.26302      6.45981         0.154527      0.123961     -0.334812
Fe	      2.15827      6.05991      4.18380        -0.153567      0.252189      0.244143
Fe	      4.25769      6.31950      6.29459        -0.181189     -0.047519      0.031062
Fe	      4.37430      4.17329      8.41607        -0.013775     -0.046404      0.028437
Co	      2.10649      0.06430      2.09187        -0.406259     -0.021336      0.496821
Cu	      2.03544      2.16829      4.17988         0.076757     -0.056183     -0.037935
O	      2.11315      1.94062      2.25561         0.088312     -0.237292     -0.132386
O	      4.40936      4.17958      2.02977         0.295918     -0.066362      0.373369
O	      4.40866      2.01493      4.22927         0.014714      0.056495     -0.074150
O	      6.47580      4.03958      4.26106         0.116905      0.045591      0.148139
O	      6.30630      2.02368      6.16263        -0.066132      0.017601     -0.061621
O	      8.55287      4.16797      6.24340        -0.020916      0.021149      0.017218
O	      2.12543      4.19170      4.15522         0.037049     -0.279633     -0.055347
O	      4.09307      6.21512      4.32240         0.045213     -0.054177     -0.124134
O	      4.20928      4.22122      6.42485        -0.017821      0.014378      0.005701
O	      6.29115      6.26028      6.18473         0.007741     -0.001880      0.149445
O	      6.25597      4.19530      8.45674         0.078542     -0.027724     -0.027296
O	      8.41310      6.29524      8.46398        -0.046279      0.026019     -0.100795
O	      2.10571      6.23159      6.26231         0.097827      0.000903     -0.425798
O	      4.22603      8.29453      6.35731         0.000206     -0.080846      0.029295
O	      4.12556      6.22257      8.46536        -0.053159      0.112803      0.000833
O	      6.41155      8.46351      8.61901         0.006448      0.263750     -0.197756
O	      6.33359      6.36967     10.56674        -0.014320      0.003949     -0.078701
O	      8.32342      8.33907     10.50923         0.070681      0.000335     -0.072987
