# total energy = -224.39929157 eV
 
CRYSTAL
PRIMVEC
-0.001060 6.283689 6.270416 
6.201078 0.001515 6.267819 
4.125216 4.178557 0.010007 
PRIMCOORD
36 1
Li	      2.11605      8.38389      6.29482         0.064406     -0.019036     -0.008576
Li	      4.12770      6.29456     10.40611         0.045187      0.053304     -0.045335
Li	     10.29196      6.30817      8.38198         0.031019      0.032292      0.096145
Li	      8.24743      4.21221      8.34930        -0.004654     -0.001794      0.036755
Li	      4.11726      4.20299      4.20698         0.038349      0.009586      0.041789
Li	      6.19772      8.37378      6.32263        -0.022775     -0.019149      0.028723
Li	      4.12171      6.28314      6.32862         0.011629      0.041870     -0.019742
Li	      4.20067      4.19653      8.34139         0.060900      0.015796      0.021727
Li	      6.11286      6.26125      8.34538        -0.087444     -0.041429      0.051312
Sc	      2.03206      2.16533      4.15848        -0.116564     -0.036581      0.005920
Mn	      2.09134      6.25099      4.15277         0.133456      0.013246     -0.043409
Cr	      4.10355     10.41848      6.29345         0.015607     -0.077646     -0.003089
Fe	      2.13844      6.28622      8.26407        -0.042387     -0.019699     -0.004076
Fe	      6.17962      2.14629      4.13329        -0.013750     -0.086995     -0.037614
Fe	      8.23123      6.31483      6.49694        -0.055661     -0.030546     -0.040761
Fe	      6.20243      4.17275      6.46168         0.022438      0.068950     -0.178201
Co	      4.12944      8.36721      8.32068        -0.043865     -0.089541      0.009042
Co	     10.28335      8.35535     10.40896         0.050447      0.083324     -0.002080
O	      2.16452      2.01133      2.08570        -0.090989      0.101696      0.142796
O	      4.21388      4.05249      2.01265        -0.059573      0.035841     -0.097129
O	      4.15813      2.09736      4.07899        -0.092850      0.052063     -0.053443
O	      6.21171      4.15119      4.16894         0.031445      0.062886      0.003128
O	      6.14190      2.06877      6.20562         0.113127     -0.030480     -0.078470
O	      8.27868      4.28104      6.26368        -0.046608     -0.028652     -0.007035
O	      1.97679      4.29199      4.17731        -0.439094     -0.262308     -0.024875
O	      4.02576      6.27566      4.19166         0.133935     -0.215309      0.003805
O	      4.21260      4.06413      6.28970        -0.014615      0.063248      0.014498
O	      6.26648      6.20761      6.24684        -0.080655     -0.014159     -0.152423
O	      6.21637      4.18051      8.33060        -0.011279     -0.069970      0.124494
O	      8.27249      6.25973      8.44672        -0.008519      0.019221      0.222333
O	      2.00341      6.26333      6.20238        -0.037242      0.013855     -0.132620
O	      4.11003      8.45621      6.35399         0.030392      0.050195      0.065563
O	      4.06716      6.41225      8.33359         0.112230      0.003385     -0.002130
O	      6.07196      8.42631      8.41487         0.160539      0.004413      0.029902
O	      6.33405      6.31359     10.51135        -0.058309      0.273342      0.037427
O	      8.26395      8.19686     10.43207         0.271728      0.044777     -0.004350
