# total energy = -91.42616584 eV
 
CRYSTAL
PRIMVEC
2.018639 4.039672 1.965819 
3.965616 -1.989728 -1.954175 
0.007584 4.053500 -3.966706 
PRIMCOORD
16 1
Li	      1.89922      1.99422     -0.03884        -0.187626     -0.250622      0.294270
Li	      3.82020      1.99354     -1.94999         0.377604     -0.474563      0.072792
Li	      0.03647      1.97443     -1.92499        -0.306312     -0.201762      0.329814
Li	      1.90749      3.88449     -1.84585        -0.428715     -0.034305     -0.032541
Mn	      0.02203      3.90891     -3.82962        -2.344116      0.815800     -1.546283
Mn	      3.84921      3.94071     -0.05274         1.839970      0.565260      2.040558
Ni	      3.86029      5.84032     -1.88039         0.640596      1.509522     -0.562266
Ni	      3.86698      3.92704     -3.77492         0.437586      1.344855     -1.155849
O	      3.80527      3.92838     -1.83604         0.474947     -0.813650     -0.849535
O	      3.85751      2.04500     -3.91683         0.654622     -1.717413     -0.440818
O	      3.98637      2.01907     -0.00113         0.778498     -0.787058      0.528147
O	      3.71906     -0.08283     -1.86819         1.158886     -1.381532     -0.119738
O	      2.06334      3.88949      0.07817        -1.513124      0.361344      1.170271
O	      1.94848      1.78271     -1.90915        -0.691170     -0.140027      0.373649
O	      1.92781      6.04118     -1.93067        -0.830014      0.875425      0.177176
O	      1.86210      3.90689     -3.91848        -0.061634      0.328727     -0.279647
