# total energy = -219.09481774 eV
 
CRYSTAL
PRIMVEC
0.013155 6.247235 6.228672 
6.480431 0.027166 6.214308 
4.326996 4.161776 0.011572 
PRIMCOORD
36 1
Li	      8.53596      2.15826      6.20665        -0.054570      0.046253      0.015319
Li	      4.36341      2.06489      2.17271        -0.007381     -0.010124      0.017585
Li	      6.44207      2.12361      4.09658        -0.110837     -0.023133      0.038286
Li	      8.53489      4.25388      8.36034        -0.030592      0.000715     -0.012014
Li	      2.24148      2.05064      4.14567         0.046450     -0.072672      0.009838
Li	      8.63015      6.24571      6.22041         0.011630      0.025302     -0.095441
Li	      6.55255      4.17627      6.26264         0.037589     -0.000165     -0.008572
Li	      8.66414      8.28224      8.33394        -0.020854      0.061156     -0.053234
Li	      6.62622      6.22882      8.28537         0.110322     -0.032136     -0.024474
Sc	     10.72015      4.21840      6.25830        -0.272361      0.012413     -0.155311
Mn	      8.61196      4.21386      4.15503        -0.030431      0.127662     -0.018409
Cr	      2.19713      0.03321      2.09625         0.244891      0.077024      0.813369
Fe	      6.44625      2.18615      8.25678         0.157028     -0.037050      0.099049
Fe	      6.46594      4.20182     10.28829         0.071964     -0.048385      0.033064
Fe	      6.54625      8.27237      6.24923         0.130257     -0.142522      0.083772
Fe	      4.44066      6.23998      6.22576         0.016865     -0.154154      0.301000
Cu	      4.31724      4.06401      4.14101         0.106475     -0.126854      0.098889
Cu	      8.64954      6.34154     10.32814        -0.042659      0.089183      0.021947
O	      8.78307      6.27157      8.39490        -0.171611     -0.007727      0.058768
O	      2.03585      1.89935      2.06549         0.033938     -0.133144     -0.230921
O	      4.45794      4.14954      2.17904         0.075621      0.136473     -0.226070
O	      4.29735      1.97665      4.13629        -0.013554      0.026913     -0.020909
O	      6.67795      4.13924      4.05278         0.023377     -0.047914     -0.382248
O	      6.46365      2.05776      6.32601         0.018454     -0.008277     -0.121784
O	      8.66922      4.16831      6.07083         0.083045     -0.022244      0.040990
O	      2.05532      4.30522      4.21930        -0.215030      0.030003     -0.148045
O	      4.43549      6.28634      4.19859         0.026384      0.155681     -0.097142
O	      4.25049      4.23472      6.08005        -0.121600      0.067127      0.078812
O	      6.38272      6.31680      6.30829         0.093883     -0.025903     -0.044174
O	      6.54481      4.14257      8.34845        -0.023997      0.031469     -0.008865
O	      2.18150      6.22646      6.23255        -0.030419      0.064979      0.068238
O	      4.40984      8.28571      6.19234         0.064020      0.038104     -0.065412
O	      4.17106      6.27929      8.31073        -0.153621     -0.009744     -0.028017
O	      6.51166      8.52403      8.21250        -0.084539      0.106221     -0.062521
O	      6.26743      6.23814     10.36405         0.084259      0.020638      0.026989
O	      8.75445      8.41448     10.36932        -0.052396     -0.215167     -0.002356
