# total energy = -219.81914728 eV
 
CRYSTAL
PRIMVEC
-0.004192 6.309136 6.280745 
6.255671 -0.001559 6.278177 
4.155667 4.189618 0.013695 
PRIMCOORD
36 1
Li	      0.02644      6.32691      6.27909         0.007444      0.022528     -0.009856
Li	      2.07208      8.34584      6.30435         0.026346     -0.044146     -0.001766
Li	      4.21184      8.41800      8.39080         0.022047     -0.024542      0.022002
Li	      6.19267      2.15449      4.19100        -0.065977      0.074592      0.012997
Li	      2.11663      2.09353      4.20506         0.062725     -0.005993     -0.037453
Li	      4.23343      4.10806      4.21377         0.044820     -0.077375     -0.015628
Li	      6.20149      4.20256      6.23953        -0.002122     -0.006218     -0.032464
Li	      6.23175      8.38838      6.33034        -0.008310      0.008430      0.003714
Li	      6.25090      6.38646      8.34246        -0.017955      0.093390      0.035818
Sc	      8.31283      4.22165      4.23422        -0.036713      0.158557      0.021894
Mn	      4.18201      8.38931      4.22779         0.018642      0.034073      0.092481
Cr	      6.25541      2.09416      8.35434         0.010965     -0.039379     -0.101913
Fe	      6.19536     10.38906      8.37644        -0.018873      0.223998     -0.080462
Fe	      2.11822      4.12157      2.05114        -0.042604      0.048060      0.018711
Fe	      4.12884      2.19330      6.23713        -0.123646     -0.012297     -0.063120
Fe	      4.25921      6.27955      6.29886        -0.033048     -0.014096     -0.010707
Ni	      2.03326      6.30451      4.26142        -0.010480     -0.019488      0.044260
Ni	      8.27825      8.39592      8.36669         0.047664      0.025755      0.052336
O	      1.99790      2.14173      2.05345        -0.032929     -0.158563     -0.005237
O	      4.13281      4.26306      2.09974         0.026375      0.054765     -0.028284
O	      4.17149      2.08100      4.29894        -0.005596     -0.122656     -0.068181
O	      6.27437      4.19335      4.02785         0.034560      0.014797      0.136911
O	      6.10783      2.13390      6.37967         0.114722     -0.012648      0.084317
O	      8.27414      4.29238      6.34444        -0.006395     -0.037162     -0.086631
O	      1.94444      4.24900      4.07732        -0.001191     -0.118460      0.019940
O	      4.11954      6.42096      4.18463         0.103151     -0.017312     -0.054222
O	      4.17793      4.23210      6.29865        -0.015763      0.006163     -0.098072
O	      6.22137      6.28823      6.30999         0.150658      0.010038     -0.014630
O	      6.27619      4.11307      8.51672         0.000509     -0.030604      0.032438
O	      8.37411      6.26672      8.37366         0.011606     -0.071114     -0.015116
O	      2.21644      6.30205      6.35954        -0.101987     -0.020327     -0.039205
O	      4.19468      8.27835      6.11828         0.004949      0.085191     -0.052149
O	      4.13131      6.31102      8.33922         0.034424      0.064213      0.078492
O	      6.24703      8.47995      8.40773        -0.074552     -0.144746      0.006830
O	      6.26297      6.12067     10.49011        -0.132690     -0.030107      0.030712
O	      8.46579      8.37578     10.45398         0.009222      0.082681      0.121244
