# total energy = -226.31862148 eV
 
CRYSTAL
PRIMVEC
0.030211 6.261786 6.344535 
6.305408 0.020345 6.354735 
4.214173 4.191690 0.002923 
PRIMCOORD
36 1
Li	      2.05033      2.16822      0.16488         0.008032     -0.025567     -0.033625
Li	      4.04566      2.07680      2.22686         0.042732     -0.003140      0.089183
Li	      8.32419      4.23745      4.25088        -0.032259      0.004748      0.020401
Li	      6.26153      2.19587      4.28402         0.002056     -0.010391      0.025132
Li	      0.19919      2.06786      2.05659        -0.036135     -0.032378     -0.024952
Li	      2.09259      3.99189      2.05471        -0.025622     -0.091249      0.021298
Li	      2.15122      2.03665      4.08296         0.064601      0.002376      0.001787
Li	      6.41812      4.14620      6.31468         0.064759     -0.032160      0.019479
Li	      4.26792      6.29454      6.36256         0.024585      0.034770     -0.010039
Sc	      8.46490      6.32822     10.57712        -0.040601      0.080018     -0.013419
Mn	     10.46000      4.23567      6.42560        -0.032855      0.020898      0.049785
Cr	      0.03468      4.14490      4.20624         0.000656      0.040963     -0.001068
Fe	      4.36257      4.16344      4.18217        -0.152201      0.027079      0.084624
Fe	      4.24412      2.03953      6.29536        -0.056345      0.020027      0.076387
Fe	      6.30894      8.33740      6.36142        -0.027532      0.057914     -0.026726
Fe	      4.23060      4.24824      8.44547        -0.015143     -0.054743     -0.049231
Fe	      6.23692      6.30246      8.46369        -0.002580      0.069153      0.041381
Co	      2.09939      0.06412      2.14874         0.046061      0.229802      0.001464
O	      2.12984      1.95330      2.10334        -0.021754     -0.097171      0.018289
O	      4.37722      4.18497      2.23087        -0.063379     -0.015447     -0.119152
O	      4.20651      2.20251      4.34583        -0.021537     -0.061661     -0.105797
O	      6.29317      4.20377      4.09498         0.161235     -0.016125      0.060434
O	      6.23069      1.98674      6.36114         0.111921      0.002786      0.034284
O	      8.51353      4.25613      6.39724        -0.033176     -0.121309      0.006850
O	      2.10784      4.20128      4.30366        -0.026133     -0.009094     -0.076161
O	      4.19205      6.29148      4.30234         0.013609      0.010706     -0.040220
O	      4.16566      4.14781      6.34386         0.017734      0.064023     -0.006867
O	      6.36298      6.34655      6.48409        -0.018607     -0.065879     -0.084958
O	      6.25496      4.25888      8.51967         0.069358     -0.025257      0.021657
O	      8.32541      6.38514      8.46261         0.009443     -0.006307      0.001229
O	      1.99791      6.22588      6.41662         0.020159      0.001417     -0.065152
O	      4.30125      8.48481      6.21924        -0.075186     -0.014050     -0.017542
O	      4.18664      6.23451      8.41577         0.016483      0.081248     -0.001764
O	      6.39062      8.41790      8.39731        -0.020683     -0.025519      0.027228
O	      6.35190      6.20187     10.46200         0.013876     -0.018654      0.037699
O	      8.53793      8.37257     10.48223         0.014426     -0.021827      0.038080
