# total energy = -223.20714262 eV
 
CRYSTAL
PRIMVEC
-0.027471 6.368630 6.211727 
6.309705 -0.018907 6.202983 
4.201912 4.235409 -0.008052 
PRIMCOORD
36 1
Li	      4.24233     10.51838      6.29929         0.036994     -0.040171     -0.009644
Li	      6.22713      4.16841      2.09803         0.022765     -0.005709      0.005919
Li	      4.27475      2.21688      2.04247         0.002403      0.019938      0.005708
Li	      2.08757      4.22981      2.17717        -0.026095     -0.000664      0.036368
Li	      2.16698      2.13160      4.06629         0.102661     -0.055341     -0.008078
Li	      6.37102      4.25454     10.26099        -0.004964      0.035238     -0.021063
Li	      6.20870      8.53836      6.28094        -0.009862      0.052589      0.032953
Li	      4.18015      4.24152      8.27129        -0.022396      0.007459     -0.010222
Li	      6.28745      6.34121      8.25946         0.000912     -0.006355      0.001455
Sc	      2.17832      2.14788      0.09165         0.117307     -0.057505      0.135330
Mn	      8.35138      6.30643     10.32401        -0.070231      0.008768     -0.000616
Cr	      6.28521      4.21892      6.22365         0.008218      0.082467     -0.034480
Fe	      4.19429      6.34917     10.18240         0.115958     -0.068681     -0.013185
Fe	      6.27135      8.45492     10.11537        -0.061762     -0.047719      0.118842
Fe	      4.24060      6.35355      2.15236        -0.067912      0.056564      0.107912
Fe	      8.34265      6.34618      6.27680        -0.061652     -0.013238     -0.076990
Fe	      4.24431      6.43697      6.30245        -0.005810     -0.106304     -0.081479
Cu	      4.13912      4.20241      4.06940        -0.017838     -0.037328      0.044597
O	      4.18154      4.34835      2.15411        -0.003508     -0.067704     -0.099371
O	      2.00373      2.12649      2.09597         0.043886      0.003274     -0.050202
O	      4.27017      1.96808      4.22647         0.010915     -0.017486     -0.032933
O	      6.41431      4.12736      4.17754        -0.147534     -0.029004     -0.034951
O	      6.23449      2.17283      6.24531        -0.008181     -0.102597     -0.025204
O	      8.34232      4.25970      6.09781         0.072475     -0.068065      0.098393
O	      2.07808      4.47617      4.15736         0.026976      0.034824      0.006930
O	      3.97994      6.44519      4.18537         0.093982      0.196295     -0.082742
O	      4.27668      4.18077      6.06929        -0.045985     -0.044803      0.039181
O	      6.30028      6.24503      6.16483         0.028563     -0.070038     -0.032632
O	      6.28170      4.10821      8.18394        -0.016425      0.066174     -0.001514
O	      8.42014      6.34509      8.30262        -0.002693      0.010122      0.025515
O	      2.15759      6.39976      6.05929        -0.167718      0.093036      0.101271
O	      4.15426      8.37671      6.24479        -0.013866      0.288099      0.010726
O	      4.19382      6.31275      8.25424         0.008605     -0.083024      0.003697
O	      6.26648      8.48683      8.28512         0.016538      0.010916     -0.154815
O	      6.35461      6.40097     10.35059         0.027968     -0.035261      0.021918
O	      8.30245      8.43158     10.36411         0.017302     -0.008766     -0.026595
