# total energy = -223.69070587 eV
 
CRYSTAL
PRIMVEC
-0.011655 6.216368 6.284230 
6.369476 -0.017363 6.289488 
4.240676 4.141933 -0.005818 
PRIMCOORD
36 1
Li	      0.06530      6.18005      6.21147         0.065775     -0.023118     -0.002739
Li	      2.19596      8.17048      6.21674         0.029026     -0.059766     -0.036287
Li	      4.15882      4.18085      4.20758        -0.021155     -0.006549      0.006448
Li	      6.33998      4.14602      6.36249        -0.029228      0.026486     -0.006379
Li	      6.38581      4.17887     10.49793         0.032811      0.010927      0.003929
Li	      2.03858      6.19366      4.30913        -0.068250     -0.017520      0.026626
Li	      2.11332      4.17885      6.24939         0.005446      0.011376     -0.025424
Li	      8.49302      8.26547      8.39389         0.011915      0.009032      0.026496
Li	      6.34776      6.20128      8.39341        -0.015137      0.004128      0.014112
Sc	      6.32455      6.22839      4.24878         0.036501     -0.026393     -0.010418
Mn	      4.23058      2.12960      6.31383         0.055188      0.290539     -0.187369
Cr	      6.37746      8.27038     10.50159        -0.045618      0.208526      0.189973
Fe	      4.32872      8.30804      8.20745        -0.153828      0.046172      0.099860
Fe	      8.56916     10.22294     10.52384        -0.162678      0.121014     -0.064926
Fe	      6.34039      2.08846      8.36586         0.085286     -0.164931      0.058726
Fe	      8.42611      4.15125      8.39675         0.076338     -0.030420     -0.091807
Fe	      4.08675      6.12132      6.26980        -0.035692     -0.060746     -0.033849
Ni	      2.11250      6.18386      8.34279        -0.028444      0.087680     -0.063741
O	      2.10851      2.09431      2.06696         0.043988      0.098817      0.032963
O	      4.20623      4.13527      2.06066        -0.125667      0.033869     -0.022632
O	      4.28702      2.06173      4.29330         0.037509     -0.112103      0.084761
O	      6.48086      4.11337      4.13915         0.112372     -0.065840      0.082556
O	      6.19756      2.09488      6.29460        -0.179492     -0.037441     -0.060827
O	      8.47081      4.30110      6.27897         0.002791      0.199465      0.087298
O	      2.13401      4.11803      4.04268        -0.044972      0.011709      0.071727
O	      4.28530      6.16047      4.19943         0.017223      0.070283     -0.058032
O	      4.23812      4.12154      6.29836         0.038539     -0.310520      0.066569
O	      6.50612      6.24156      6.27689         0.070859     -0.009783      0.096714
O	      6.44815      4.01393      8.38728        -0.016180      0.151112      0.031485
O	      8.55663      6.17891      8.22977        -0.081570      0.051806     -0.055614
O	      2.18216      6.17764      6.31202        -0.022672     -0.021371     -0.105973
O	      4.25649      8.15428      6.32019         0.023589     -0.027392     -0.129099
O	      4.21160      6.28778      8.36585         0.083670      0.005694      0.052700
O	      6.24707      8.31332      8.50870         0.109935     -0.224098      0.023044
O	      6.26053      6.28118     10.48526         0.122399     -0.054132     -0.035303
O	      8.36505      8.32405     10.51085        -0.030575     -0.186511     -0.065569
