# total energy = -227.37958265 eV
 
CRYSTAL
PRIMVEC
-0.012429 6.434412 6.317209 
6.331762 -0.011140 6.316253 
4.216087 4.284135 -0.002478 
PRIMCOORD
36 1
Li	      2.14531      8.52901      6.31807         0.011667     -0.044421     -0.005756
Li	     10.41129      6.54703      8.47493         0.007870      0.063565      0.036713
Li	      8.33658      4.43179      8.49677        -0.015664      0.067883      0.074903
Li	     10.47047      8.50825     10.44133        -0.061923     -0.005996     -0.025307
Li	      2.21171      6.40266      4.07890         0.027370     -0.020763     -0.018774
Li	      6.31217      8.58054      6.32138        -0.005573      0.056398     -0.018194
Li	      4.18510      6.48699      6.24320        -0.040031      0.091777     -0.023669
Li	      8.52016      8.42152      8.43065         0.000268     -0.006550      0.049906
Li	      6.45280      6.31421      8.39054        -0.017681     -0.033078      0.021985
Sc	      6.39901      8.50735     10.50215         0.189826     -0.148840     -0.050469
Mn	      4.18362      4.36495      4.21485        -0.125608      0.090755     -0.029237
Cr	      8.41285      6.42534      6.39619        -0.007831      0.007025      0.127042
Fe	      4.24531     10.64349      6.34190        -0.053200      0.083488     -0.026326
Fe	      2.12597      6.44059      8.31057         0.001384     -0.024617      0.046097
Fe	      4.19110      8.53335      8.33306         0.012132     -0.002486      0.033733
Fe	      4.27879      6.33739     10.50627         0.012701     -0.003079     -0.052167
Fe	      1.99489      2.25946      4.21287         0.014212      0.002650     -0.016256
Fe	      6.30979      4.29599      6.53182         0.056051     -0.065687     -0.120560
O	      2.20103      2.02302      2.21551        -0.069360      0.052466     -0.060465
O	      4.26804      4.19456      2.11204        -0.053429      0.042366      0.198516
O	      4.19359      2.03462      4.23175         0.007768     -0.013504      0.000234
O	      6.22999      4.27840      4.19407         0.082982     -0.026515      0.047062
O	      6.24325      2.13739      6.29420        -0.011360     -0.010287      0.023400
O	      8.42262      4.36826      6.22609         0.007699     -0.013506      0.111537
O	      2.29027      4.20371      4.22471         0.022336      0.138316     -0.009876
O	      4.30083      6.46505      4.22506        -0.140368     -0.032052     -0.015561
O	      4.30135      4.16580      6.21053        -0.081426     -0.013835     -0.080008
O	      6.39569      6.31136      6.22659         0.009069      0.046170      0.044315
O	      6.33160      4.29125      8.36043        -0.016162      0.007626      0.163483
O	      8.41128      6.43739      8.32775         0.013540      0.000883     -0.020648
O	      1.98998      6.47196      6.38500         0.086073      0.009684     -0.097204
O	      4.17498      8.68639      6.40100        -0.012693     -0.089524     -0.099367
O	      4.13394      6.51783      8.50199         0.069935     -0.065695     -0.100006
O	      6.21095      8.68146      8.46037         0.054647     -0.048691     -0.001372
O	      6.25435      6.45121     10.63326         0.067379      0.057551     -0.090401
O	      8.38373      8.71317     10.52983        -0.042601     -0.149479     -0.017304
