# total energy = -210.13091047 eV
 
CRYSTAL
PRIMVEC
0.025072 6.271597 6.129186 
6.292114 0.014573 6.140070 
4.189048 4.182461 0.015709 
PRIMCOORD
36 1
Li	      6.30974      6.27467     12.18423        -0.015105      0.029455      0.003035
Li	      8.40936      8.39959     12.21919         0.027009     -0.023160      0.015009
Li	      8.44094     10.38843     10.28354         0.031150     -0.076538      0.043696
Li	      6.23938      6.28422      4.11137        -0.065976     -0.029703      0.007586
Li	      4.20677      4.22888      4.08800        -0.002750      0.067574     -0.078521
Li	      6.30499      4.17513      6.11072         0.028703      0.043275      0.019772
Li	      4.21136      8.39441      4.15683        -0.049923      0.043718     -0.005603
Li	      8.35754      6.31766     10.28925        -0.012251      0.040427      0.040023
Li	      2.06979      4.21285      6.06861        -0.030188      0.015102     -0.143868
Sc	      4.17373      2.12588      6.03240        -0.247792     -0.075285      0.076294
Mn	      6.30336     10.44138      8.19254        -0.036251      0.299998     -0.060471
Mn	      4.21516      6.27176      6.07273         0.022469     -0.042145     -0.193895
Cr	      4.20606      6.29602      2.09132        -0.057091      0.079026      0.174447
Co	      2.07940      4.15770      2.10132        -0.075881      0.014968      0.260012
Cu	      4.22221      8.37355      8.18102        -0.047626      0.020912     -0.031978
Cu	      8.41474      8.36817      8.22735         0.150745     -0.009815     -0.029886
Ni	      6.35614      8.36213     10.24748         0.362252     -0.303973      0.215263
Ni	      6.29851      6.27360      8.24032         0.042716     -0.116688     -0.042073
O	      6.30320      6.44091     10.19481        -0.161300     -0.459386      0.184496
O	      8.27041      8.38612     10.16466         0.495429      0.063694      0.098343
O	      2.01776      1.96314      2.08845         0.022895     -0.087634     -0.035413
O	      4.34087      4.28023      2.02940         0.087813     -0.015860     -0.023202
O	      4.31323      2.08800      4.00040        -0.476648      0.067445     -0.030301
O	      6.33071      4.04130      3.96217        -0.129550      0.660577     -0.026261
O	      6.22856      2.13213      6.22555         0.092992      0.041224     -0.246255
O	      8.38756      4.23602      6.39672         0.026662     -0.011786     -0.202637
O	      2.13143      4.16730      3.85736         0.062808     -0.008009      0.000184
O	      4.19218      6.28059      4.19893         0.024710     -0.005532     -0.006661
O	      4.20726      4.27125      6.18622         0.003432      0.095007     -0.042960
O	      6.21078      6.27863      6.18606        -0.080959     -0.017128     -0.091273
O	      6.28348      4.16019      8.24772         0.036327     -0.135237      0.015026
O	      8.43721      6.32114      8.19139         0.071745     -0.102630      0.019399
O	      2.27978      6.25871      6.24027         0.003607     -0.009505     -0.040880
O	      4.21866      8.19136      6.24317         0.002102     -0.027823      0.078339
O	      4.14783      6.21753      8.05617        -0.000874      0.084309      0.052400
O	      6.35092      8.46322      8.17283        -0.105403     -0.108876      0.028816
