# total energy = -210.86773879 eV
 
CRYSTAL
PRIMVEC
0.017856 6.151485 6.192910 
6.236194 -0.004298 6.215008 
4.170655 4.128742 -0.015865 
PRIMCOORD
36 1
Li	      6.30679     10.21999      8.24525        -0.002770     -0.072094      0.003350
Li	      6.31979      8.16549     10.35283        -0.030101      0.041348     -0.019714
Li	      6.19213      2.09866      8.19963        -0.006435      0.048214      0.012811
Li	      4.22931      2.09088      6.27452         0.093758      0.005418     -0.024703
Li	      6.20169      4.12312      6.26672         0.020222     -0.035327     -0.034921
Li	      6.21443      4.14586     10.29484        -0.013725     -0.068991      0.005866
Li	      8.30608      6.16989     10.26028         0.061936      0.025036      0.036682
Li	      2.18081      4.03372      6.17824        -0.016963      0.018603      0.028351
Li	      8.26353      8.15496      8.24765        -0.022918     -0.022813      0.001566
Sc	      4.28038      8.19106      8.24061        -0.004747      0.026592      0.011930
Mn	      8.26462      2.04875      6.18791        -0.092707      0.004496     -0.065662
Mn	      4.19219      4.14149      4.19020        -0.001751      0.015101      0.046922
Cr	      8.31319     10.22570     10.32239        -0.068471      0.032689     -0.016344
Co	      4.14407      6.12367      6.20810        -0.017587     -0.028437     -0.011052
Ni	      6.30846      6.16871     12.32612         0.024171     -0.075603      0.014836
Ni	      8.33163      4.19147      8.28793         0.044668     -0.036426     -0.037055
Ni	      6.22089      6.20861      4.17965        -0.024562     -0.008080      0.012724
Ni	      6.31137      6.13946      8.24268        -0.061124      0.074167      0.023727
O	      2.08314      2.24550      1.97996        -0.004517     -0.131539     -0.096603
O	      4.08763      4.14446      2.15762         0.090631     -0.026055      0.059925
O	      4.11908      2.10443      4.16639         0.111642     -0.002476     -0.060682
O	      6.18217      4.18156      4.05611         0.008723     -0.149576      0.023762
O	      6.39245      2.01197      6.21945         0.096932      0.137085     -0.022443
O	      8.38831      4.00722      6.11847        -0.085480     -0.012071     -0.018646
O	      2.27716      4.09141      4.13703         0.029909      0.116097      0.096770
O	      4.18532      6.04731      4.29212        -0.100394      0.004751      0.030315
O	      4.17388      4.20309      6.07642        -0.014519      0.033421      0.026211
O	      6.03611      6.15638      6.23784        -0.041197      0.014794      0.032505
O	      6.43668      4.23499      8.28184        -0.126778     -0.075877      0.017123
O	      8.32830      6.07048      8.23649         0.102794      0.142956     -0.002525
O	      2.13294      6.29761      6.23544         0.126345     -0.000231     -0.026380
O	      4.04221      8.14096      6.17033         0.009387     -0.062174      0.010368
O	      4.16251      6.11134      8.25173        -0.059657      0.001774      0.005544
O	      6.27574      8.08187      8.21808        -0.057095      0.119617      0.012052
O	      6.10470      6.14469     10.29090         0.030596     -0.004503     -0.064294
O	      8.31396      8.27570     10.46400         0.001783     -0.049887     -0.012315
