# total energy = -208.42471937 eV
 
CRYSTAL
PRIMVEC
0.017686 6.220080 6.185886 
6.307982 0.010466 6.192922 
4.194854 4.140950 0.017517 
PRIMCOORD
36 1
Li	      4.19992      4.14209      0.04000         0.045382     -0.019341      0.058124
Li	      4.14607      2.11932      2.14433        -0.010630     -0.033556     -0.015591
Li	      6.26198      2.02697      4.18680         0.054741     -0.025136     -0.004054
Li	      4.21954      6.15385      2.09280         0.039451     -0.014166      0.001444
Li	      2.19171      4.05337      2.11166         0.013009      0.000486     -0.034883
Li	      2.13154      2.17417      4.09432        -0.028714     -0.016077     -0.053602
Li	      2.12914      6.18642      4.15841        -0.034749      0.030890     -0.030933
Li	      2.05505      4.19730      6.11589        -0.065418      0.060382      0.002274
Li	      8.39810      8.23647      8.33417        -0.034891      0.002982      0.064274
Sc	      6.26263      4.12270      2.12435         0.098752      0.013557     -0.130765
Mn	      6.31561      4.12175      6.19377         0.150616     -0.019479      0.086856
Mn	      0.06741      4.12191      4.11185        -0.237291      0.120847      0.003873
Cr	      6.36579      6.30093      8.26022         0.056669      0.126315      0.096490
Cu	      4.09799      4.10301      4.07874         0.022998     -0.031455     -0.100766
Cu	      4.20926      6.22862      6.16300        -0.045951      0.046727      0.092486
Ni	      2.12729      8.27748      6.20385        -0.051253      0.052159      0.000583
Ni	      4.26647      6.25844     10.31050         0.023394     -0.098963     -0.002067
Ni	      4.22283      2.07728      6.18165         0.010747     -0.040389      0.141171
O	      4.20248      6.35304      4.16183         0.020080     -0.077534     -0.146504
O	      4.35490      4.18280      6.06098         0.057090     -0.036159      0.083012
O	      2.12707      2.01769      1.95357        -0.010103      0.007839      0.301680
O	      4.23584      4.13286      2.15569        -0.121170     -0.005809     -0.088325
O	      4.20439      2.05011      4.22046        -0.034185      0.177083     -0.168766
O	      6.40756      4.14585      4.26195        -0.136383      0.045125      0.123244
O	      6.29179      2.24038      6.24038        -0.034037      0.022782     -0.020548
O	      8.24984      4.13484      6.20714        -0.083888      0.110697      0.060837
O	      1.93742      4.15168      4.11549         0.233479      0.010311      0.017759
O	      6.28548      6.10630      6.26164         0.007679     -0.030525     -0.020525
O	      6.24507      4.30322      8.21801         0.012766     -0.068158     -0.036040
O	      8.20180      6.24209      8.18096        -0.096930      0.007678      0.131272
O	      2.19330      6.26597      6.22596        -0.061889     -0.230798     -0.052934
O	      4.19898      8.25357      6.04083         0.133541      0.083413     -0.094087
O	      4.32905      6.21139      8.22495         0.047344      0.023768      0.014424
O	      6.31167      8.17624      8.26147         0.001469     -0.081244     -0.033816
O	      6.31195      6.12907     10.24051        -0.005239     -0.018435     -0.010606
O	      8.57340      8.36579     10.42231         0.063514     -0.095818     -0.234992
