# total energy = -208.03133449 eV
 
CRYSTAL
PRIMVEC
0.031251 6.264357 6.191230 
6.311632 0.033144 6.189499 
4.221987 4.189410 0.007922 
PRIMCOORD
36 1
Li	      6.34321      0.15570      6.14588        -0.005511      0.023525     -0.106316
Li	      2.07371      0.01890      2.04012         0.008925     -0.015333     -0.004748
Li	      6.33165      2.14604      4.24868         0.041449      0.020507      0.067941
Li	      6.30836      2.07922      8.18758        -0.041694      0.031701      0.005317
Li	      4.24796      2.15831      6.22929         0.006606      0.032933      0.067473
Li	      6.33029      4.09376      6.18738         0.017177     -0.092624      0.025717
Li	      8.45449      6.34241     10.30340         0.001508      0.045544     -0.044584
Li	      4.20159      6.21547      6.17064        -0.000331      0.009979     -0.013102
Li	      4.23482      4.15873      8.20629         0.035440     -0.041491      0.005631
Sc	      4.25552      8.38882      8.22486         0.114219     -0.179878     -0.191126
Mn	     10.52066      8.40426     10.32919         0.024354      0.042989     -0.197062
Mn	      2.18789      4.24984      6.17712        -0.087323      0.033184      0.031079
Cr	      6.31463      6.25797      4.16180        -0.343377      0.018582      0.022860
Cu	      8.29282      2.07971      6.22390         0.063513     -0.193241     -0.049346
Cu	      8.42565      4.18505      4.18531        -0.066083      0.103380     -0.082777
Cu	      4.28068      4.22599      4.14491         0.040772      0.001437     -0.012949
Ni	      8.44126      4.27642      8.19574        -0.135302      0.020682      0.092637
Ni	      6.36604      6.27272      8.24265        -0.141280     -0.020325      0.014142
O	      4.08388      4.22591      6.05560         0.159698     -0.033012     -0.179258
O	      8.23749      6.25321      8.26154         0.224977      0.137549     -0.049394
O	      8.59061      8.39824     10.44055        -0.039386     -0.063354      0.037571
O	      2.12940      2.13032      2.04744         0.251534     -0.090152      0.142978
O	      4.17857      4.19760      2.23354         0.201484     -0.143037      0.122513
O	      4.12256      2.04633      4.12676         0.151798     -0.013423     -0.029347
O	      6.39893      4.29165      4.12182        -0.016801     -0.026736      0.016794
O	      6.37410      2.11179      6.19042        -0.162734     -0.048456      0.062934
O	      8.41264      4.06408      6.18866         0.001950      0.004563     -0.122032
O	      1.99155      4.13402      4.20214        -0.089252      0.078794     -0.010567
O	      4.31569      6.43748      4.10620         0.010808      0.022829     -0.026722
O	      6.33715      6.46853      6.14016         0.019171      0.015387     -0.048575
O	      6.34270      4.28650      8.41362        -0.054063     -0.102651     -0.002041
O	      2.15015      6.17509      6.21015        -0.015504     -0.013970      0.034225
O	      4.36580      8.38817      6.10125         0.040155      0.027347      0.387472
O	      4.41756      6.27188      8.32969        -0.104475      0.253104     -0.034320
O	      6.38961      8.30934      8.10372        -0.248439      0.106035     -0.071350
O	      6.25741      6.15150     10.29185         0.136016      0.047631      0.138335
