# total energy = -208.11589473 eV
 
CRYSTAL
PRIMVEC
0.046963 6.211129 6.386421 
6.215745 0.025648 6.408056 
4.151642 4.162970 0.009303 
PRIMCOORD
36 1
Li	     10.29616      4.24338      6.42305        -0.014636      0.007893     -0.003281
Li	      4.20289      2.13208      2.22546        -0.029264     -0.043502      0.030114
Li	      6.10811      2.02916      4.36948         0.039713     -0.000682      0.030418
Li	      4.14681      6.16073      2.09981        -0.019427      0.027243      0.044636
Li	      4.17790      4.16011      4.27463         0.030069      0.032428     -0.019493
Li	      4.23195      2.08537      6.37842        -0.035305     -0.067721      0.014060
Li	      6.28956      4.06306      6.40335         0.043892      0.060141      0.037468
Li	      8.30425      6.15296     10.56453         0.053648     -0.001945     -0.008891
Li	      6.30690      6.19397      8.65212        -0.028082      0.026571     -0.097913
Sc	      4.23789      4.05797      8.45981         0.140357     -0.157812      0.128268
Mn	      8.20850      2.16703      6.43160        -0.237113     -0.000800      0.013936
Mn	      6.16980      4.17249      2.12866        -0.118395      0.119413      0.145344
Cr	      4.18637      6.23125      6.35175         0.387640      0.148500     -0.219020
Cu	      4.14070      0.06023      4.27810         0.039620     -0.013002      0.048620
Cu	      2.11013      2.12325      4.29166         0.086817     -0.332477     -0.230093
Cu	      6.24076      4.19541     10.66043        -0.083580      0.017212     -0.039059
Cu	      2.10415      4.17078      6.39361         0.054791     -0.139938      0.017770
Ni	      8.32923      4.23437      8.57050         0.052416     -0.040772      0.031837
O	      2.02765      4.10223      4.24066         0.221683      0.343011      0.138795
O	      4.26176      6.31063      4.34056        -0.175090     -0.079604      0.222992
O	      6.20744      6.39892      6.29875        -0.353454     -0.123192      0.494401
O	      6.05518      6.19335     10.67192         0.092103      0.107565      0.026015
O	      2.07317      1.98266      1.97220         0.030257     -0.093863     -0.163914
O	      4.28788      4.15280      2.23893         0.085355     -0.045361     -0.084674
O	      4.07849      1.92662      4.29442         0.040933      0.070430     -0.072126
O	      6.38701      4.29223      4.08470        -0.086863     -0.188373     -0.192101
O	      6.37220      2.09045      6.35342         0.110421      0.009165      0.096713
O	      8.27969      4.01573      6.59260         0.012553      0.019744      0.011903
O	      4.28074      4.22537      6.38265        -0.242518      0.102126      0.028108
O	      6.27111      4.18128      8.67727        -0.078841     -0.008304     -0.168685
O	      8.30097      6.24250      8.57194         0.029639      0.179082      0.028165
O	      2.12874      6.20858      6.48202         0.104711      0.244421      0.016815
O	      4.03758      8.23986      6.29041         0.093173     -0.119300      0.082416
O	      4.05559      6.22021      8.32945        -0.088340     -0.048273     -0.124982
O	      6.27126      8.46927      8.55073        -0.015225      0.024137     -0.240210
O	      8.35295      8.48263     10.78133        -0.143656     -0.034166     -0.024357
