# total energy = -207.59056991 eV
 
CRYSTAL
PRIMVEC
0.001798 6.210042 6.121932 
6.361649 -0.001333 6.124654 
4.252437 4.152915 -0.012076 
PRIMCOORD
36 1
Li	     10.44966      4.19463      6.14537         0.005161     -0.067495      0.062656
Li	      2.10418      4.14834      2.14103        -0.030846     -0.009412     -0.064742
Li	      2.03268      2.13828      4.03465        -0.052908     -0.046945     -0.028298
Li	      4.16749      4.21227      4.05057        -0.040276     -0.017668      0.051375
Li	      8.52786      6.12008      6.10944        -0.019966     -0.038536      0.075950
Li	      6.38070      4.16562      6.14513        -0.000517     -0.010584      0.036201
Li	      0.11368      4.09545      4.02647        -0.004731      0.028175     -0.028584
Li	      2.15230      6.12983      3.99666         0.029349      0.000863     -0.025596
Li	      4.32790      4.09819      8.14934         0.040282     -0.050617     -0.030914
Sc	      2.14482      4.14605      6.03545         0.076001      0.043570      0.008881
Mn	      6.39346      8.29564     10.18573         0.082170      0.112823      0.478884
Mn	      4.25684      6.19963      6.07594        -0.061618     -0.025134     -0.537140
Cr	     10.49185      6.28835      8.19914        -0.000372      0.032024      0.093076
Cu	      8.44917      2.11729      6.13019         0.019884     -0.056536      0.052184
Cu	      6.33116      4.17246      2.05997         0.016092      0.037179     -0.056042
Cu	      4.20074      2.15282      2.06203        -0.090840      0.251486     -0.038343
Cu	      6.43457      6.12337      8.16415         0.040159     -0.042406     -0.108603
Cu	      8.50972      4.15981      4.13759        -0.036675     -0.058436      0.086404
O	      8.50488      4.05012      6.15908        -0.106252      0.262604     -0.193437
O	      4.25249      6.32527      8.00939        -0.309462     -0.048981      0.640093
O	      6.35675      6.34738     10.09084         0.084650     -0.012470     -0.144516
O	      8.33532      8.39313     10.26881        -0.004728     -0.135798     -0.218481
O	      1.89286      1.96600      2.00200        -0.217663      0.160121      0.106615
O	      4.31368      4.19472      2.01506         0.113477     -0.126745      0.088452
O	      4.43317      1.98442      4.03064        -0.018997      0.171688     -0.052831
O	      6.44405      4.02643      4.01459         0.088432     -0.071678      0.171582
O	      6.43369      2.05677      6.05909        -0.249288     -0.077056     -0.297021
O	      2.11112      4.11531      4.12911         0.022730     -0.016770     -0.087448
O	      4.24062      6.24680      4.09989        -0.027654     -0.037491     -0.170760
O	      4.20521      4.32311      6.12437         0.020537     -0.081485     -0.008505
O	      6.21664      6.20714      6.20584         0.248883      0.042648      0.155167
O	      6.35480      3.95206      8.18682         0.009352      0.162998      0.021357
O	      8.65689      6.16506      8.10518         0.037254     -0.014189      0.018062
O	      2.29942      6.26948      6.16291        -0.090543     -0.084147     -0.092149
O	      4.18864      8.21627      6.18799         0.269255     -0.036817     -0.031168
O	      6.49951      8.36807      8.27082         0.159668     -0.138782      0.067635
