# total energy = -212.34703768 eV
 
CRYSTAL
PRIMVEC
-0.007986 6.327813 6.039027 
6.425872 -0.006582 6.036413 
4.274160 4.207646 0.004911 
PRIMCOORD
36 1
Li	     10.44893      4.24777      6.04330         0.033177      0.088151      0.006041
Li	      8.64827      8.55033     12.02326        -0.070235     -0.029812      0.043053
Li	      6.34593      4.18614      2.01613        -0.030675      0.038657     -0.021339
Li	      4.28845      2.18576      1.97323        -0.098076      0.016614      0.077114
Li	      8.63378      4.13814      4.17614        -0.050759      0.060738      0.027441
Li	      4.27374      4.19397      3.96928        -0.027187     -0.067541      0.029324
Li	      8.65259      6.14110      6.06052         0.089128      0.027791     -0.110312
Li	      6.54283      4.16076      6.08138         0.063700     -0.138154     -0.051944
Li	      6.38383      4.26707     10.06310         0.040691     -0.067020     -0.001688
Sc	      6.36639      8.45610      6.06036        -0.027289     -0.007645     -0.238583
Mn	      4.25961      6.33097      6.00627         0.207028      0.108876     -0.019367
V	      2.28591      1.90901      3.95509         0.182410      0.189189      0.048768
Cr	      6.40898      2.10651      7.99609         0.112167     -0.176471     -0.153653
Co	      6.52337      8.32987     10.12112        -0.353827      0.071739      0.281416
Cu	      8.53466      6.38955     10.06440         0.015734     -0.040010      0.140937
Cu	      4.30831      4.27642      8.04411         0.114876     -0.038974      0.070882
Ni	      2.15615      4.21333      2.01012         0.018053      0.002066      0.052734
Ni	      6.39271      6.26774      8.10013         0.079859     -0.152662     -0.146590
O	      8.53696      4.20144      6.18063        -0.026325      0.004059     -0.429533
O	      8.46402      8.47122      9.99510         0.484506      0.062641      0.046035
O	      2.02659      2.07419      2.13451         0.042646     -0.202992     -0.046834
O	      4.11876      4.36242      1.97906         0.345791     -0.123536      0.075278
O	      4.03618      2.08392      4.04869        -0.195852     -0.036802     -0.046352
O	      6.43486      4.36914      4.02253        -0.054174     -0.317007     -0.045954
O	      6.36863      2.14825      5.97287        -0.012659      0.175852     -0.012899
O	      2.16774      4.04803      3.97820        -0.021401      0.077744      0.361128
O	      4.45753      6.28418      4.03558        -0.045012      0.045507      0.094153
O	      4.21842      4.37893      6.07472         0.008531     -0.030304     -0.070404
O	      6.26678      6.33315      5.94832        -0.078272     -0.056906      0.001577
O	      6.61992      4.16778      8.06947        -0.342218      0.042210     -0.007503
O	      8.62398      6.40953      8.11376        -0.031040      0.115803     -0.012811
O	      2.33934      6.31724      5.96066        -0.037171      0.079500      0.075428
O	      4.29842      8.24688      6.02710         0.073483      0.019050      0.090247
O	      4.33802      6.25223      7.89835        -0.154499      0.071123     -0.058817
O	      6.27272      8.39257      8.19374        -0.059971      0.097164     -0.176495
O	      6.41032      6.39103     10.08528        -0.195138      0.091360      0.129524
