# total energy = -212.89083855 eV
 
CRYSTAL
PRIMVEC
0.039107 6.212835 6.319425 
6.304901 0.025267 6.333702 
4.188216 4.136376 0.030796 
PRIMCOORD
36 1
Li	      6.30223      6.24163     12.46515         0.017019     -0.003988     -0.041180
Li	      4.42382      6.27046     10.48052         0.003335     -0.034205      0.011996
Li	      6.23014      8.17648     10.48981         0.009320     -0.001487      0.021955
Li	      6.28450      6.29673      4.41228        -0.028370     -0.042101      0.107639
Li	      2.11210      6.12633      4.16816        -0.016555      0.031916      0.098060
Li	      6.32869      8.16483      6.40973         0.027860     -0.084338      0.040195
Li	      4.25843      6.21530      6.35108         0.034876      0.003832      0.032153
Li	      8.38278      8.24572      8.47528        -0.017306      0.024727     -0.045880
Li	      6.27976      6.28000      8.46996        -0.040291     -0.002475     -0.055854
Sc	      6.35167      4.11003      2.26167         0.019593      0.050734      0.004118
Mn	      0.13764      4.17854      4.19319        -0.103199      0.077038      0.002139
V	      8.42886      8.25201     12.48204         0.033783     -0.077934     -0.222595
Cr	      6.29803      4.22120      6.32606         0.072570     -0.188071     -0.010779
Co	      4.17534      4.19081      4.32867         0.029506      0.081758      0.149405
Cu	      4.29657      8.26837      8.49287        -0.035154     -0.056049      0.030017
Cu	      8.43784      4.20314      8.45749        -0.100337      0.091267      0.110642
Cu	      8.33979      6.24724      6.35388        -0.197976      0.105611     -0.080296
Ni	      4.17510      6.20194      2.16065         0.120340      0.021898     -0.064762
O	      8.48495      6.14557      8.23937        -0.062532     -0.038797      0.136664
O	      6.39235      6.06035     10.50540         0.024356     -0.108548     -0.042979
O	      2.20888      2.16011      1.90295         0.027863      0.017058      0.045706
O	      4.15552      4.11415      2.36001        -0.068235     -0.059316      0.111819
O	      4.15413      2.25847      4.44960         0.003014      0.065833     -0.232341
O	      6.10434      4.18028      4.33887         0.013906     -0.016751     -0.128356
O	      6.51736      2.15181      6.33655        -0.095991     -0.028204     -0.023272
O	      8.30182      4.04463      6.19887         0.126909     -0.224701     -0.036832
O	      2.03861      4.13803      4.36825         0.019311     -0.021366      0.039669
O	      4.19575      6.21921      4.17578        -0.051362     -0.006789      0.046014
O	      4.29993      4.15069      6.26701        -0.102696      0.135443     -0.079724
O	      6.30015      6.09232      6.40335         0.086442      0.255720      0.046072
O	      6.37661      4.09966      8.48759         0.035218      0.076685     -0.016399
O	      2.07475      6.44460      6.40226         0.003914      0.039736      0.024866
O	      4.06241      8.32236      6.15578         0.088699     -0.002014      0.075240
O	      4.18807      6.31105      8.49441         0.001846     -0.040199      0.038262
O	      6.26448      8.32589      8.46635         0.062320     -0.016296      0.024146
O	      8.57718      8.26094     10.66480         0.058005     -0.025626     -0.115529
