# total energy = -211.15998668 eV
 
CRYSTAL
PRIMVEC
0.046352 6.640169 6.279014 
6.072295 0.020772 6.305453 
4.067119 4.464197 -0.005710 
PRIMCOORD
36 1
Li	      4.08041      4.45681      0.17683         0.004858     -0.054811     -0.082514
Li	      2.03742      2.23936      0.15716        -0.004394      0.031649     -0.000238
Li	      1.91371      0.21048      2.08500         0.006450     -0.012564     -0.018404
Li	      4.18672      6.40684      1.98318        -0.121088      0.044800     -0.015963
Li	      2.10464      4.25517      2.29112        -0.050160     -0.067754     -0.072253
Li	      2.00855      2.42034      4.03247         0.027122      0.013547      0.078390
Li	      3.91301      4.56563      4.08303         0.074735     -0.051086      0.036291
Li	      2.12209      6.33331      4.30346        -0.089087      0.046674      0.010115
Li	      2.02797      4.49523      6.18619         0.008224     -0.000420      0.105884
Sc	      6.09147      2.28119      4.26258         0.003806      0.012216      0.235254
Mn	      4.01816      0.04751      4.15955         0.052848      0.102216      0.178755
V	      6.29737      6.69765      8.33022         0.669761     -0.153876      0.052891
Cr	      3.96676      6.71207      6.23286         0.057247     -0.225836     -0.221475
Co	      3.97236      2.29971      2.03105        -0.169673      0.383284      0.005934
Cu	      8.11652      6.66516      6.26599        -0.039650     -0.096265      0.134872
Cu	      6.10537      4.40944      6.25478         0.035574     -0.068742      0.006616
Cu	      4.15347      8.84544      4.25080        -0.189790     -0.061874      0.100107
Cu	      4.10330      4.52724      8.32475        -0.236375     -0.148290      0.007072
O	      4.18199      4.64561      6.39013        -0.108130      0.317430     -0.024500
O	      6.04619      4.83157      8.36403         0.100940     -0.075405      0.030873
O	      2.18853      6.62365      6.33099         0.030057      0.027249      0.071039
O	      2.10410      2.26056      2.07723        -0.143014     -0.127897      0.163335
O	      4.04754      4.18146      2.09219         0.185677     -0.044680      0.184957
O	      4.01013      2.03024      4.17527         0.008910     -0.165198      0.002214
O	      6.20018      4.36301      4.15234        -0.047285     -0.050134     -0.287954
O	      5.97657      2.13678      6.28964         0.341823     -0.149188      0.050929
O	      8.03916      4.39532      6.02685         0.081971     -0.065778     -0.018286
O	      1.95060      4.42246      4.24260         0.144824     -0.054789     -0.075612
O	      4.11346      6.61752      4.42431        -0.013168      0.119984      0.044823
O	      6.11515      6.78630      6.50737        -0.409117      0.098699     -0.237708
O	      8.06102      6.62870      8.41044        -0.091048      0.087810      0.192996
O	      4.06711      8.68058      6.36093         0.037819      0.042296     -0.659655
O	      4.18429      6.94859      8.38497        -0.047386     -0.042103     -0.016054
O	      6.16145      8.66193      8.40963        -0.117658      0.343800      0.008674
O	      6.04291      6.78200     10.30124        -0.117229      0.016924      0.090830
O	      8.24457      9.17268     10.31589         0.121607      0.028109     -0.062233
