# total energy = -209.68343523 eV
 
CRYSTAL
PRIMVEC
0.029048 6.267767 6.217410 
6.287715 0.043911 6.202478 
4.218096 4.194974 0.002934 
PRIMCOORD
36 1
Li	      6.37886      6.33516     12.33042         0.007814      0.008100     -0.015612
Li	      8.37268      8.35971     12.34813        -0.057763     -0.040804      0.035440
Li	      6.33346      4.25528      2.14255         0.056597      0.012950      0.033041
Li	      4.14034      0.11198      4.15460         0.001674      0.026697     -0.022145
Li	      6.28417      6.22200      4.22101        -0.046600     -0.063245     -0.004356
Li	      4.28738      4.20333      4.21431         0.002608     -0.028409     -0.025599
Li	      4.24660      2.16095      6.03167         0.018338      0.001775     -0.087628
Li	      4.23618      8.28876      4.29515        -0.028920     -0.019480      0.017482
Li	      4.20645      6.33209      6.09795        -0.035427     -0.007535     -0.031164
Sc	      4.24564      4.27098      8.27837         0.018642      0.127534     -0.025487
Mn	      2.08524      4.18859      6.12387         0.012818     -0.115248      0.058231
V	      2.24176      4.09807      1.99558        -0.141544     -0.004372     -0.007151
Cr	      6.31874      6.31826      8.27143        -0.047762     -0.091814     -0.055018
Cu	      2.15587      6.27105      4.21771        -0.020363      0.052291     -0.124687
Ni	      6.27257      2.14532      4.22697         0.048791     -0.047248     -0.011063
Ni	      4.26549      8.31122      8.29563        -0.119526      0.116502     -0.036657
Ni	      0.02413      2.08498      2.07254         0.013365     -0.041526      0.034310
Ni	      6.25062      4.20503      6.12230         0.013437      0.113794      0.059720
O	      4.12981      6.30752      4.03471         0.040704     -0.033137      0.244805
O	      2.10953      2.28794      2.15262         0.044484     -0.019048      0.015984
O	      4.00675      4.20676      2.07906         0.106509     -0.020248      0.028968
O	      4.39123      2.10257      4.06238        -0.245332      0.021987      0.071457
O	      6.32037      4.06069      4.15125         0.058629      0.295723     -0.172685
O	      6.29300      2.20008      6.29126         0.018504     -0.156157     -0.034607
O	      8.35773      4.25314      6.45789         0.069953     -0.032248     -0.056271
O	      2.07112      4.24941      4.14915        -0.001980     -0.108961      0.024118
O	      4.08961      4.17434      6.23122        -0.072121     -0.001200     -0.000679
O	      6.33621      6.37246      6.24393         0.013691      0.128370     -0.012150
O	      6.36759      4.29751      8.26122         0.028100      0.030653      0.108869
O	      8.36078      6.20263      8.37430         0.001276     -0.036071     -0.082552
O	      2.12832      6.10980      6.16780        -0.023768      0.065249      0.204333
O	      4.39321      8.39185      6.25849         0.088492      0.006633     -0.086713
O	      4.32619      6.27207      8.30200        -0.043563     -0.133499     -0.032493
O	      6.35003      8.33443      8.11107         0.092323      0.055966     -0.062158
O	      6.36431      6.47214     10.26798        -0.049371     -0.140451      0.051330
O	      8.27060      8.32527     10.36736         0.177290      0.076475     -0.001213
