# total energy = -92.27252281 eV
 
CRYSTAL
PRIMVEC
2.039558 4.081533 1.986190 
4.006711 -2.010347 -1.974425 
0.007663 4.095505 -4.007811 
PRIMCOORD
16 1
Li	      1.93878      2.03576     -0.03965        -0.123828     -0.150173      0.182034
Li	      3.89979      2.03507     -1.99062         0.244978     -0.319860      0.059038
Li	      0.03722      2.01557     -1.96510        -0.187697     -0.145064      0.226274
Li	      1.94723      3.96541     -1.88431        -0.275954     -0.032759     -0.012150
Mn	      0.02249      3.99035     -3.90940        -1.606142      0.604456     -1.130918
Mn	      3.92939      4.02281     -0.05384         1.196712      0.369140      1.344242
Ni	      3.94071      5.96198     -1.91957         0.371561      1.007777     -0.381531
Ni	      3.94754      4.00885     -3.85356         0.237669      0.884010     -0.735090
O	      3.88454      4.01022     -1.87430         0.305094     -0.549107     -0.497091
O	      3.93788      2.08760     -3.99843         0.489036     -1.175396     -0.312525
O	      4.06942      2.06114     -0.00115         0.583414     -0.466905      0.322886
O	      3.79653     -0.08456     -1.90711         0.788689     -1.010128     -0.121618
O	      2.10633      3.97051      0.07979        -0.917694      0.224515      0.825160
O	      1.98907      1.81985     -1.94892        -0.473405     -0.135444      0.310279
O	      1.96798      6.16704     -1.97089        -0.502731      0.634139      0.138009
O	      1.90090      3.98828     -4.00012        -0.129702      0.260798     -0.217000
