# total energy = -210.26009712 eV
 
CRYSTAL
PRIMVEC
0.001909 6.261035 6.422323 
6.229538 0.007263 6.416608 
4.146372 4.163781 0.011514 
PRIMCOORD
36 1
Li	      2.11811      8.32959      6.48094         0.009192      0.032006      0.055052
Li	      4.18456      6.33887      2.32033        -0.042707     -0.006064      0.066870
Li	      8.13248      4.22328      8.65273         0.092302      0.033093      0.108255
Li	      2.04779      2.13896      4.23000        -0.108095      0.112918      0.055962
Li	      4.13391      4.20597      4.37161        -0.079836      0.080792      0.048327
Li	      8.17531      6.27563      6.46164        -0.006179      0.023099      0.025490
Li	      6.27628      4.24412      6.46245         0.015580      0.036944      0.022385
Li	      0.10018      4.07500      4.17014         0.010715     -0.143702     -0.026402
Li	      6.32793      6.11362      8.45635         0.078281     -0.022566     -0.122286
Sc	      4.26319      4.09415      8.54024         0.103814     -0.416457     -0.227619
Mn	      2.06015      4.14894      6.32555         0.006994     -0.253717     -0.126175
V	     10.26979      4.32922      6.53292        -0.032651      0.057414      0.113759
Cr	      4.17551      6.27325     10.66709         0.208048      0.066955      0.161038
Cu	      6.20803      4.21642      2.19090        -0.075778      0.028239     -0.029525
Cu	      4.14985      8.30749      8.55677        -0.137280      0.221117     -0.008290
Cu	      6.22328      2.13658      4.30760         0.047866     -0.035134      0.158083
Ni	      2.07593      6.21825      4.25815         0.020318     -0.174175     -0.153755
Ni	      4.17065      6.27302      6.34237         0.029259     -0.064122     -0.233674
O	      6.26831      1.88056      6.59166         0.010611     -0.032343     -0.041607
O	      4.00883      6.26099      4.34921         0.397703      0.016318     -0.044619
O	      2.18116      1.94264      2.15639        -0.066157      0.070148      0.042242
O	      4.07759      4.03191      1.92177         0.167520      0.082937     -0.068281
O	      4.28368      2.02445      4.15436         0.153628     -0.139419      0.088366
O	      6.33071      4.09537      4.33022         0.019972     -0.133380     -0.200493
O	      8.46889      4.17225      6.29049         0.005387     -0.041635     -0.006401
O	      2.04617      4.17593      4.44459         0.024383     -0.129625      0.073179
O	      3.98632      4.21112      6.42942         0.050879     -0.101367      0.086726
O	      6.19325      6.42826      6.39970         0.069228      0.084534      0.043932
O	      6.21950      4.16314      8.48487        -0.134602      0.029645      0.031924
O	      8.27703      6.24969      8.69678        -0.058065      0.221298     -0.323186
O	      1.95070      6.15702      6.29039        -0.102793      0.076587      0.320996
O	      4.23688      8.37815      6.48090         0.007549      0.163954     -0.108127
O	      4.25450      6.31229      8.61553        -0.242245     -0.113569      0.298812
O	      6.18505      8.51485      8.32570         0.048035     -0.117010     -0.052407
O	      6.24044      6.33930     10.91798        -0.346685      0.187615     -0.147062
O	      8.19608      8.40801     10.67793        -0.144191      0.298674      0.118510
