# total energy = -209.83524266 eV
 
CRYSTAL
PRIMVEC
-0.005323 6.363328 6.072466 
6.369282 -0.038274 6.105213 
4.222402 4.240558 -0.001800 
PRIMCOORD
36 1
Li	      4.27227     10.48653      6.06727         0.013269     -0.053736      0.097268
Li	      2.19466      8.46599      6.04257         0.048873     -0.002227      0.077515
Li	      4.23505      6.32955     10.11478        -0.064254      0.011059      0.000233
Li	     10.58494      6.38490      8.18351         0.066059     -0.002812      0.006323
Li	      2.19336      4.16862      2.11472         0.093744     -0.055555     -0.010349
Li	      2.02733      2.23002      4.08396        -0.031274      0.087154      0.049512
Li	      4.12173      4.31827      4.07337        -0.043427      0.018803      0.077728
Li	      2.03876      4.28234      6.00511         0.079919     -0.021103      0.022382
Li	      4.16912      6.43082      6.02110        -0.064470     -0.014871      0.023653
Sc	      2.08637      0.05495      1.99898        -0.141771     -0.007236     -0.028243
Mn	      4.16597      2.13842      1.97983         0.029084      0.117334      0.045165
V	      8.48254      6.14461      6.14996        -0.150030      0.080538     -0.223938
Cr	      6.36248      8.42531     10.16420         0.107145      0.147552      0.162489
Cu	      6.31529      4.19742      6.07246         0.084815      0.105233     -0.110584
Cu	      2.16231      6.31277      4.11962         0.082618     -0.102313     -0.141453
Cu	      4.27352      4.21738      8.10524        -0.037248      0.088710     -0.159950
Cu	      6.31554      6.31131      8.12454        -0.111236      0.011491     -0.184315
Ni	      4.24273      8.45836      4.08399         0.028572      0.004935     -0.024962
O	      6.30477      4.29984      8.04683        -0.019963      0.144191      0.317782
O	      8.58107      6.24500      7.92282        -0.052286     -0.093455      0.303354
O	      8.43515      8.37298     10.03807        -0.153891      0.074965      0.120478
O	      2.27033      2.11494      2.06172        -0.231268      0.054315      0.089032
O	      4.26201      4.03704      2.04171        -0.074094      0.135914      0.067829
O	      4.35380      2.09310      4.15910         0.052902     -0.076448     -0.092881
O	      6.37532      4.08719      4.12774         0.013275     -0.293318     -0.206363
O	      6.20797      2.11615      6.08279         0.212801     -0.126164     -0.303660
O	      8.45745      4.35981      6.05431         0.084832     -0.091147     -0.013353
O	      2.02940      4.36041      4.07180         0.038418     -0.066613     -0.030161
O	      4.12549      6.43510      4.04453         0.096454     -0.036963     -0.035775
O	      4.31682      4.08077      6.18637        -0.184550     -0.159332     -0.036303
O	      6.57594      6.30569      6.10847         0.019159      0.118194     -0.012899
O	      2.09646      6.37783      6.04411        -0.088109      0.084599      0.215398
O	      4.21005      8.49147      6.19488         0.003576      0.004199     -0.182809
O	      4.14320      6.57412      8.10636         0.418940     -0.134807      0.052860
O	      6.25278      8.44543      8.15394         0.010326     -0.125045      0.071531
O	      6.45744      6.34618     10.07800        -0.136910      0.173957     -0.002534
