# total energy = -215.83186038 eV
 
CRYSTAL
PRIMVEC
-0.022971 6.178629 6.390097 
6.163665 0.018414 6.348243 
4.116609 4.099017 0.004984 
PRIMCOORD
36 1
Li	      0.08296      0.04148      0.05247        -0.006556     -0.015740      0.046242
Li	      2.00570      1.99957      0.01661        -0.003769      0.013025      0.060122
Li	      6.07377      2.13022      8.40883        -0.061037     -0.040150      0.071638
Li	      8.17422      4.16872      8.39691         0.039099      0.004349      0.073955
Li	      2.00156      2.10791      4.16481         0.000739     -0.006501     -0.246956
Li	      8.22796      6.19186      6.56218         0.006815     -0.036503      0.126489
Li	      8.17870      6.22341     10.57031         0.026592     -0.024785     -0.127130
Li	      4.10731      6.17596      6.40256        -0.011797      0.032623      0.042902
Li	      8.26509      8.10143      8.45234        -0.017049     -0.024693      0.097610
Sc	      4.03894      4.18455      4.28622        -0.073112      0.055383     -0.583757
V	      8.23266      4.11510      4.37925         0.017769      0.029320     -0.472988
Cr	      2.05181      6.17801      8.38829         0.045167      0.214284      0.265996
Fe	      4.14510      8.09954      4.30477        -0.043661      0.092826     -0.134503
Co	      4.05089      8.23545      8.42221         0.528372     -0.001591      0.468256
Co	      6.17187      8.24078     10.63652        -0.011544      0.010989     -0.126334
Co	      6.20421      6.15603      8.52011        -0.159622      0.170475      0.174037
Cu	      6.09913      4.12167      6.46148         0.051673      0.081001      0.118228
Cu	      2.07175      4.09424      6.36665         0.016251     -0.081181      0.168362
O	      6.14885      6.11462      6.61880         0.042646      0.015436     -0.040943
O	      2.17978      1.97875      2.06687         0.102906     -0.106205     -0.166131
O	      4.18495      4.00118      2.10151        -0.084073     -0.078183      0.041360
O	      4.23320      2.02115      4.12860        -0.145891      0.081920     -0.506407
O	      6.23026      4.01941      4.05527        -0.038072     -0.091401      0.136066
O	      6.15352      2.18232      6.16409        -0.045059      0.058910     -0.105993
O	      8.15705      4.17495      6.14087        -0.065205      0.045528      0.277657
O	      2.01085      4.09081      4.30114         0.120602     -0.084818     -0.072437
O	      4.12175      6.19248      4.19393        -0.011005     -0.172711      0.136907
O	      4.10599      4.10967      6.34383        -0.089799     -0.005300      0.204985
O	      6.14231      4.26306      8.67949        -0.047439     -0.133362     -0.293891
O	      8.06116      6.15344      8.54420         0.046957      0.060772     -0.074575
O	      2.07289      6.08460      6.47658         0.033479     -0.101949     -0.200009
O	      4.18671      8.21978      6.35903        -0.000468     -0.028009      0.495355
O	      4.10175      6.30285      8.62526         0.057193      0.060628      0.028683
O	      6.07129      8.18181      8.62799        -0.237593      0.028529     -0.007791
O	      6.06269      6.25957     10.54420         0.031810      0.024304      0.026653
O	      8.16453      8.36319     10.61317        -0.015318     -0.047220      0.098341
