# total energy = -216.12569471 eV
 
CRYSTAL
PRIMVEC
0.042378 6.226473 6.223209 
6.263315 0.013816 6.251243 
4.193111 4.187427 -0.008063 
PRIMCOORD
36 1
Li	      2.10631      2.08725      0.10592        -0.011678     -0.014111     -0.009505
Li	      2.20018      6.25359      8.24772        -0.001041     -0.011768      0.028040
Li	      4.16039      0.08240      4.17408        -0.001560      0.012714     -0.003322
Li	      4.13413      6.25201      2.15577         0.015772     -0.022626     -0.014423
Li	      8.38004      6.26479      6.27723        -0.008758      0.027818     -0.017251
Li	      6.21179      4.14713      6.26285        -0.051933      0.029387     -0.015851
Li	      2.21187      6.17886      4.09539        -0.016881     -0.012492      0.020813
Li	      4.20207      6.19866      6.21678         0.026722      0.000347      0.019378
Li	      4.23366      4.18010      8.21313        -0.033778      0.051853     -0.008272
Sc	      6.28144      6.17272      8.24513        -0.075908      0.080611     -0.039722
V	      6.42191      2.16667      4.25984        -0.106867      0.071514     -0.007317
Cr	      4.15905      2.10641      2.07260         0.150325     -0.077470      0.005297
Fe	      2.19645      4.19835      6.17039        -0.127584     -0.148709      0.162610
Co	     10.43519      4.20812      6.24211        -0.116583      0.050287     -0.009294
Co	      4.20070      4.18894      4.16209         0.071278     -0.014031      0.050243
Co	      4.11010      8.14601      4.15718        -0.195190     -0.034068      0.049880
Ni	      8.38126      4.18727      8.31274        -0.006327     -0.087067      0.067326
Ni	      6.28534      6.21991      4.18240         0.052966     -0.090127     -0.014949
O	      2.18935      2.24474      2.12850        -0.026416     -0.088817     -0.118042
O	      4.17228      4.13926      2.17193         0.031363      0.028084     -0.002648
O	      4.27167      2.23175      4.07773         0.086969      0.020673     -0.019065
O	      6.16027      4.05057      4.17042        -0.033694      0.005337     -0.024012
O	      6.28838      2.10212      6.04044         0.051004      0.063106      0.006747
O	      8.56706      4.18741      6.31711         0.107073      0.007403     -0.134683
O	      2.24150      4.13476      4.14795         0.008530      0.058169     -0.027272
O	      4.26419      6.15848      4.17012        -0.112318     -0.076244     -0.004709
O	      4.13178      4.17971      6.11971         0.166624      0.022586     -0.069222
O	      6.32226      6.33669      6.20097         0.006226     -0.065521      0.243105
O	      6.30253      4.14247      8.42581        -0.011102     -0.020793      0.009524
O	      8.36647      6.09363      8.32378        -0.027063      0.126543      0.014237
O	      1.92041      6.17903      6.23108         0.021958      0.149388     -0.009426
O	      4.28413      8.37029      6.20411        -0.013664     -0.066786     -0.067867
O	      4.20376      6.35377      8.30899         0.051965     -0.019591      0.000884
O	      6.26683      8.32150      8.35886        -0.025355     -0.001188     -0.059810
O	      6.24610      6.46777     10.40404        -0.004294      0.038849     -0.012103
O	      8.21611      8.39269     10.33841         0.159220      0.006738      0.010683
