# total energy = -218.14639978 eV
 
CRYSTAL
PRIMVEC
0.037416 6.303552 6.253995 
6.289398 0.000213 6.291401 
4.182162 4.216473 0.010802 
PRIMCOORD
36 1
Li	      8.44676      8.40532     12.50805         0.051714     -0.106364     -0.030599
Li	      6.37181     10.40541      8.38196        -0.010863     -0.042601     -0.128473
Li	      4.27078      8.38240      8.39507        -0.046693      0.026360      0.009052
Li	      6.31787      8.43129     10.40044         0.058666      0.093082      0.036494
Li	      6.26836      6.28123      4.23259         0.020634      0.046490      0.003753
Li	      4.28183      4.25016      4.20943         0.014901     -0.050054      0.033838
Li	      6.20670      4.25532      6.22658        -0.031225      0.027810     -0.009164
Li	      6.28841      8.44366      6.28735        -0.050685      0.145144     -0.115987
Li	      4.18856      4.31443      8.33202         0.046513      0.024036      0.009962
Sc	      4.14417      2.25595      6.23145        -0.075607      0.031139     -0.042123
V	      0.13392      2.08015      2.10159         0.287470     -0.143658     -0.074977
Cr	      8.28483      4.22657      4.18529        -0.337667     -0.303993      0.099424
Fe	      2.12379      4.18750      2.09437        -0.100649     -0.053631      0.167503
Co	      0.15914      6.22732      6.25588        -1.244463      0.280542      0.414463
Co	      4.19978      8.40928      4.18590         0.012258     -0.105268      0.083217
Co	      8.36952      6.35148     10.48840         0.206517     -0.002840      0.403897
Co	      6.22387      6.55251      8.34656        -0.006187      0.373665     -0.139524
Ni	      4.20714      6.25764      6.27352        -0.094886      0.008309      0.073194
O	      1.95366      2.15316      2.12567        -0.221987     -0.018421     -0.051433
O	      4.12894      4.28038      2.07506         0.254741      0.030675     -0.568623
O	      4.18757      1.91336      4.20580         0.123558     -0.014126     -0.012969
O	      6.49356      4.12190      4.20083         0.046506      0.034667      0.040333
O	      6.24578      2.04648      6.45539         0.352418     -0.675593     -0.087069
O	      8.50101      4.23480      6.30329         0.448484     -0.092756     -0.159659
O	      1.93651      4.25276      4.07713         0.003086     -0.002940     -0.073330
O	      4.18975      6.28719      4.10389        -0.077344      0.979095      0.142069
O	      4.19031      4.23179      6.21599         0.073102     -0.145104     -0.001286
O	      6.26123      6.27854      6.38849         0.064717     -0.046158      0.034147
O	      6.36898      4.09767      8.46026        -0.141423      0.091915      0.211350
O	      8.46883      6.25541      8.38732        -0.025157      0.011432      0.037547
O	      2.02901      6.32440      6.24277        -0.104958     -0.027695     -0.312586
O	      4.21920      8.42304      6.13120         0.118762      0.793671     -0.427406
O	      4.25774      6.31284      8.42171         0.189656      0.052941      0.087392
O	      6.33534      8.33024      8.39334        -0.040550     -0.438317      0.053836
O	      6.21271      6.30237     10.44319         0.178601     -0.912458      0.408502
O	      8.57074      8.51548     10.46577         0.058039      0.131004     -0.114766
