# total energy = -220.47290245 eV
 
CRYSTAL
PRIMVEC
-0.036813 6.253517 6.241123 
6.412033 0.007158 6.196587 
4.268985 4.134014 0.010431 
PRIMCOORD
36 1
Li	      2.21948      6.19925      8.26015         0.027342      0.023621      0.051943
Li	      8.56784     10.22927     10.31838        -0.005149      0.052776     -0.001314
Li	      6.52418      8.28252     10.24515        -0.041549      0.039951     -0.043438
Li	      6.42269      6.21755      4.21467         0.057930     -0.039068      0.046490
Li	     10.44132      8.31998     10.40181        -0.010124     -0.041020     -0.066200
Li	      8.50191      6.35704     10.38203        -0.035989     -0.070204     -0.056339
Li	      4.20478      6.29342      6.34104         0.001245     -0.016332      0.057462
Li	      8.45459      8.36399      8.45869        -0.023823     -0.023601     -0.042946
Li	      6.27476      6.29415      8.35358        -0.001722     -0.014851     -0.047189
Sc	      2.06396      4.17753      2.18183        -0.033430      0.157569     -0.153148
V	      4.36156      4.22184      4.20605         0.148314     -0.147815      0.233732
Cr	      6.41304      4.19075      6.23276        -0.004651      0.092838     -0.110097
Fe	      4.39661      8.14668      8.33115         0.009806      0.144711      0.172014
Co	      6.42138      6.23984     12.18967         0.003296      0.081012     -0.175323
Co	      2.10569      8.23727      6.19132         0.002783      0.095735     -0.170354
Co	     10.64604      6.21484      8.26455        -0.059181      0.006332     -0.142952
Co	      4.26370      2.11126      6.18361        -0.053183      0.087308     -0.213943
Co	      6.38283      8.28054      6.26237         0.063747     -0.109566      0.017411
O	      1.99014      2.08357      1.93005        -0.021209     -0.172960     -0.236125
O	      4.21539      4.22555      2.17725        -0.028984     -0.004790     -0.027663
O	      4.24201      2.29339      4.07247        -0.033932      0.045773     -0.059170
O	      6.20756      4.15122      4.22081        -0.142615      0.014753     -0.002573
O	      6.25695      2.09971      6.31002         0.254910     -0.038855      0.107650
O	      8.46658      4.05879      6.21077         0.080147     -0.579521      0.045088
O	      2.34241      4.16128      4.20474         0.027227      0.034781      0.050346
O	      4.29273      6.06510      3.99919        -0.023883      0.182271     -0.124780
O	      4.36141      4.27742      6.06733        -0.024838      0.179544     -0.074665
O	      6.56638      6.17287      6.23933        -0.097399     -0.013629     -0.000453
O	      6.40807      4.03948      8.23235        -0.007306     -0.108442      0.084229
O	      8.68762      6.24443      8.18274         0.174937     -0.093785      0.288953
O	      1.97101      6.29060      6.23325        -0.066201      0.443562      0.007295
O	      4.23732      8.38805      6.33723        -0.222406      0.008315     -0.105023
O	      4.22248      6.29730      8.33274        -0.030800     -0.105123      0.043399
O	      6.31781      8.30981      8.27275         0.073373      0.046428     -0.027520
O	      6.35887      6.23997     10.42713        -0.021969     -0.058459      0.193853
O	      8.48970      8.29692     10.53322         0.065287     -0.099257      0.481350
