# total energy = -213.91714537 eV
 
CRYSTAL
PRIMVEC
0.002348 6.387012 6.385690 
6.096028 0.042412 6.343398 
4.082363 4.248123 0.010291 
PRIMCOORD
36 1
Li	      8.07963      2.25859      6.39003         0.027906      0.061312     -0.023349
Li	      4.07668      6.41084     10.59735         0.019521     -0.037500      0.057369
Li	     10.07323      6.45824      8.56036         0.137964     -0.103601      0.055309
Li	      8.12887      4.41338      8.38989         0.038641     -0.076727     -0.090733
Li	      4.06495      4.28221      4.26376        -0.002481      0.000082      0.047294
Li	      8.13296      6.40951      6.58946        -0.025122     -0.031790     -0.082983
Li	      6.09077      4.27116     10.52283        -0.016456      0.032302      0.125055
Li	      8.19746      8.38041      8.44938        -0.082844      0.061081     -0.031969
Li	      6.19875      6.29008      8.49007        -0.150731      0.033268     -0.021517
Sc	      4.06687      6.40394      6.37996         0.033733      0.058236      0.136316
V	      6.13739      8.49726     10.61870         0.097707     -0.142817      0.119373
Cr	     10.11291      4.31251      6.38823        -0.472592     -0.217168     -0.248223
Fe	      6.10192      4.32558      2.18047         0.013060     -0.038398      0.043325
Fe	      2.07831      2.27332      4.20916         0.050300      0.065467      0.138341
Co	      6.15846      4.24390      6.41232        -0.050603     -0.322758      0.355009
Cu	      2.11181      4.25073      6.38540         0.236810     -0.118401      0.018615
Ni	      8.16980      6.36936     10.47620         0.021350     -0.022847      0.225847
Ni	      4.05269      2.15857      2.12238        -0.012464     -0.006421     -0.091311
O	      8.11812      6.38199      8.54678         0.027283     -0.002875     -0.217551
O	      2.02123      2.06258      2.26768        -0.087377     -0.068383     -0.030038
O	      4.12543      4.23045      2.01181        -0.001153      0.169266      0.105544
O	      4.15639      2.14828      4.16626         0.047086      0.032404      0.040700
O	      6.09886      4.13315      4.30294        -0.002991      0.073044     -0.178068
O	      6.05731      2.17078      6.14152        -0.154485     -0.361103     -0.107845
O	      8.07085      4.21003      6.30719         1.173530      0.065133      0.072594
O	      2.06307      4.22642      4.41234         0.020611     -0.015420     -0.202779
O	      4.14428      6.45164      4.30855        -0.023769      0.009707     -0.070983
O	      4.13991      4.31402      6.37097        -0.734330     -0.033443     -0.076667
O	      6.15604      6.15752      6.25921        -0.079113      0.972872     -0.094568
O	      6.10878      4.25344      8.19728         0.099745      0.006710      0.092257
O	      1.96556      6.51248      6.43519         0.108728     -0.172034      0.014215
O	      4.18853      8.60916      6.41903        -0.198929      0.048276     -0.040399
O	      3.99585      6.46494      8.45695         0.019923     -0.038144      0.009437
O	      6.10319      8.62433      8.64427         0.046372      0.057653      0.096450
O	      6.08754      6.59380     10.70578         0.003201      0.088193     -0.090825
O	      7.94581      8.50557     10.57876        -0.128030     -0.025175     -0.053242
