# total energy = -214.58687654 eV
 
CRYSTAL
PRIMVEC
0.048882 6.282584 6.120743 
6.481091 0.042528 6.127439 
4.340063 4.212429 0.008781 
PRIMCOORD
36 1
Li	      4.31169      4.22463      0.07185        -0.050875      0.104939     -0.056497
Li	      8.61612      2.25383      6.14906        -0.092255      0.032981      0.005063
Li	      4.29987      2.18595      2.01966         0.038240      0.065430     -0.021174
Li	      2.33031      4.11399      1.94485         0.037745     -0.034259      0.010076
Li	      4.42369      4.21459      4.07152         0.077698     -0.036343     -0.020536
Li	      6.48529      4.26350      6.14532         0.032406     -0.109829      0.067863
Li	      2.30496      4.21392      6.13864        -0.013065     -0.017990      0.034645
Li	      4.37477      6.17114      6.16444         0.018720      0.031223     -0.028548
Li	      6.30843      6.33730      8.09483        -0.077471      0.039435     -0.004566
Sc	      8.60621      6.29481      6.18884         0.348092     -0.213402      0.019162
V	      0.10165      4.30708      4.21342         0.025876      0.388042     -0.278231
Cr	      0.06382      2.10639      2.01622         0.096591      0.190647     -0.412823
Fe	      2.20521      6.30096      8.00811        -0.195360     -0.388752      0.223392
Fe	      6.51608      6.28895      4.12691         0.258763     -0.007050     -0.029528
Co	      6.40948      2.20781      4.12455        -0.046208     -0.373016     -0.086659
Cu	      2.24733      6.29205      4.17536        -0.118043     -0.165176      0.111964
Cu	      4.37348      4.22535      8.15291        -0.194263      0.073438     -0.123987
Ni	      8.60071      4.23157      4.11815         0.108733      0.006734      0.083331
O	      2.20203      6.25967      6.11757         0.061936     -0.032977     -0.231323
O	      2.10087      2.07192      2.08698         0.083468      0.010436      0.018757
O	      4.47999      4.32256      2.04656         0.005792      0.004233      0.059697
O	      4.31555      2.12264      4.05437        -0.357137      0.069096      0.058283
O	      6.54033      4.25522      4.03743        -0.088670      0.259449     -0.118389
O	      6.46117      2.12786      6.01071        -0.168793     -0.003330      0.809814
O	      8.65731      4.25173      6.13252        -0.020235      0.104824      0.006550
O	      1.96188      4.21901      4.03170         0.074804     -0.071398      0.043470
O	      4.51739      6.46257      4.01834        -0.200872     -0.049765      0.106414
O	      4.34906      4.17627      6.19657        -0.082756      0.096788      0.105281
O	      6.54962      6.34361      6.04941        -0.043278      0.088333     -0.003856
O	      6.39287      4.15824      8.27295         0.364197     -0.147472      0.228480
O	      8.86220      6.36946      8.28903         0.003291     -0.036115     -0.011559
O	      4.34246      8.38533      5.94362        -0.010994     -0.044500      0.021035
O	      4.24948      6.21854      8.19278         0.080822      0.107857     -0.078780
O	      6.63884      8.40961      8.37320        -0.271122      0.424251     -0.384089
O	      6.40047      6.15985     10.15786         0.121523     -0.328129      0.041785
O	      8.83002      8.37140     10.18839         0.192703     -0.038634     -0.164516
