# total energy = -92.57905042 eV
 
CRYSTAL
PRIMVEC
2.050017 4.102464 1.996375 
4.027258 -2.020656 -1.984550 
0.007702 4.116508 -4.028364 
PRIMCOORD
16 1
Li	      1.95872      2.05670     -0.04006        -0.094267     -0.113640      0.135940
Li	      3.93989      2.05600     -2.01109         0.187149     -0.246033      0.051902
Li	      0.03761      2.03629     -1.98530        -0.137607     -0.112884      0.177738
Li	      1.96725      4.00619     -1.90368        -0.211665     -0.029614     -0.002958
Mn	      0.02272      4.03138     -3.94959        -1.257548      0.492827     -0.915863
Mn	      3.96980      4.06418     -0.05440         0.912696      0.282166      1.031992
Ni	      3.98123      6.02329     -1.93931         0.261040      0.787375     -0.294807
Ni	      3.98812      4.05007     -3.89318         0.163236      0.683353     -0.553143
O	      3.92449      4.05146     -1.89357         0.228381     -0.439409     -0.344713
O	      3.97837      2.10906     -4.03955         0.407893     -0.932096     -0.258552
O	      4.11126      2.08233     -0.00116         0.484847     -0.330648      0.228898
O	      3.83557     -0.08543     -1.92672         0.608120     -0.822582     -0.119301
O	      2.12799      4.01134      0.08061        -0.669801      0.170390      0.661362
O	      2.00952      1.83856     -1.96895        -0.370500     -0.128201      0.272342
O	      1.98821      6.23045     -1.99116        -0.364704      0.512762      0.114583
O	      1.92044      4.02930     -4.04125        -0.147269      0.226235     -0.185421
