# total energy = -217.89108383 eV
 
CRYSTAL
PRIMVEC
0.014274 6.277559 6.281763 
6.248299 0.002553 6.293465 
4.168745 4.196258 -0.001421 
PRIMCOORD
36 1
Li	      8.15390      2.10123      6.42191         0.034561     -0.019932      0.003612
Li	      6.26718     10.43468      8.40174        -0.053666      0.001006      0.012834
Li	      6.14568      2.24801      4.33472         0.060651     -0.009301      0.051447
Li	      6.24941      2.02928      8.24827         0.013397     -0.045187     -0.064826
Li	      4.28010      4.11125      4.26823         0.027337      0.053665      0.029527
Li	      4.33255      2.12293      6.26082         0.004791     -0.042005      0.048472
Li	      6.26216      3.96860      6.18161        -0.059530     -0.061196      0.020851
Li	      2.09487      6.20705      4.19942        -0.027049      0.010892     -0.005013
Li	      4.11498      4.19851      8.27596         0.023143      0.015284     -0.009843
Sc	      6.30403      6.40827      8.37297         0.009229      0.040980     -0.069174
V	     10.27939      8.29337     10.42618        -0.130863      0.037651     -0.018141
Cr	      4.09314      6.25541      6.31108        -0.127055      0.104607      0.029624
Fe	      2.20811      4.23877      2.03179        -0.039302     -0.028968      0.023105
Fe	      2.19917      2.02935      4.16165        -0.235697      0.171327      0.096548
Co	      6.25298      0.04681      6.29765         0.165365      0.215090      0.063628
Co	      2.09914      4.22589      6.25150        -0.019632     -0.024432      0.020728
Cu	      8.27466      4.23851      4.26400         0.079532     -0.101174     -0.017247
Ni	      4.18416      2.15120      2.11364         0.008454     -0.030208     -0.065828
O	      2.11959      2.22503      2.18777        -0.118333     -0.048106      0.006366
O	      4.16722      4.19020      1.93663         0.183134      0.069538      0.045633
O	      4.14380      2.12918      4.16245         0.068879     -0.100607      0.055468
O	      6.33107      4.27333      4.23175        -0.111381     -0.072816      0.010504
O	      6.26461      1.94480      6.26075         0.083431      0.032391      0.011280
O	      8.49578      4.16858      6.37388        -0.188827     -0.068043      0.042895
O	      1.95438      4.15321      4.26602         0.038423     -0.046153      0.040806
O	      4.20777      6.44238      4.27324        -0.035121     -0.003113      0.019539
O	      4.03589      4.30654      6.25698        -0.082500      0.011919     -0.046883
O	      6.14812      6.40552      6.25454        -0.014476      0.088580      0.040279
O	      6.30454      4.20652      8.61172        -0.013384      0.028372      0.039770
O	      8.30620      6.19619      8.43927        -0.025253      0.108454      0.025269
O	      2.02090      6.15119      6.22932         0.423843     -0.101227     -0.003516
O	      4.29505      8.41148      6.16580        -0.044626     -0.138314     -0.076981
O	      4.20164      6.32358      8.27815        -0.080131     -0.026777     -0.138633
O	      6.25128      8.41416      8.22735         0.065146     -0.061056     -0.078008
O	      6.15047      6.13457     10.56614         0.108747     -0.069014     -0.116851
O	      8.53647      8.34210     10.51576         0.008763      0.107872     -0.027241
