# total energy = -217.33855867 eV
 
CRYSTAL
PRIMVEC
0.016800 6.128861 6.312642 
6.292456 0.006288 6.322870 
4.209093 4.106868 -0.010013 
PRIMCOORD
36 1
Li	     10.48377     10.21724     12.57439         0.051832     -0.005908     -0.027047
Li	      8.46734      8.20176     12.58865        -0.026461     -0.021751     -0.027576
Li	      6.34265      8.13389     10.55311         0.045657      0.039360      0.042873
Li	      2.10371      2.05761      4.19086        -0.006242      0.028729      0.023447
Li	      6.31152      4.08526      6.43223        -0.024049      0.012324      0.006539
Li	      4.25386      8.19324      4.27516         0.016286     -0.017180      0.035286
Li	      6.25098      8.15106      6.28682        -0.047932      0.006956     -0.043252
Li	      4.30343      6.22440      6.23861        -0.018237     -0.005283      0.013459
Li	      4.27617      4.08186      8.39381         0.059532      0.016334      0.012305
Sc	      4.22552      4.11580      4.28714        -0.133692      0.074630      0.032735
V	      2.12274      6.07780      8.27148         0.009963     -0.044063     -0.057528
Cr	      4.23185      2.06176      6.36149         0.182519      0.029709     -0.029203
Fe	      4.19356      8.16020      8.19581         0.019938     -0.065942      0.175045
Fe	      8.37786     10.13835     10.57823        -0.027683     -0.118969     -0.039845
Co	      8.38503      6.23085     10.54194         0.047274     -0.143646      0.059264
Co	      6.33720      6.12337      8.41939        -0.037825     -0.012994     -0.147584
Ni	      6.30282      2.13669      8.42005         0.043486      0.025695      0.007219
Ni	      8.37655      4.10221      8.40395         0.059367     -0.045110      0.034306
O	      2.11037      1.98717      2.11215         0.096083      0.021521      0.038170
O	      4.28183      4.05809      2.13399         0.046477     -0.033765      0.014718
O	      4.14500      1.98637      4.32730         0.037506      0.030506     -0.009459
O	      6.32483      4.10157      4.01363         0.018515      0.001070     -0.003822
O	      6.10734      2.02397      6.37761        -0.191711      0.014474     -0.079183
O	      8.38921      4.18842      6.24729         0.057511      0.043313     -0.011581
O	      2.15127      4.26988      4.15792        -0.024268      0.087927      0.107662
O	      4.05923      6.17707      4.19040         0.038361     -0.026932     -0.062265
O	      4.21790      3.96761      6.31520        -0.002789     -0.044951     -0.042172
O	      6.47728      6.13691      6.48367        -0.020777      0.001518      0.114678
O	      6.37908      4.19766      8.41062        -0.106105      0.160752      0.045438
O	      8.47439      6.15191      8.35058        -0.004827      0.003298     -0.116188
O	      2.11930      6.12981      6.49492        -0.056361     -0.056569      0.114150
O	      4.21649      8.18277      6.36130        -0.033121      0.014145     -0.180984
O	      4.11815      6.14827      8.51981        -0.041459     -0.026570      0.048469
O	      6.18740      8.17446      8.41087         0.029326      0.031294      0.060794
O	      6.37288      6.15775     10.36539        -0.048710      0.010009     -0.104509
O	      8.38253      8.16902     10.56191        -0.007384      0.016071     -0.004361
