# total energy = -220.33194423 eV
 
CRYSTAL
PRIMVEC
0.039164 6.238636 6.371796 
6.274566 0.038605 6.371651 
4.200891 4.176789 0.008280 
PRIMCOORD
36 1
Li	      2.30320      8.32351      6.34852        -0.023413     -0.007929      0.011808
Li	      4.16642      8.40231      8.32883        -0.013511      0.018701     -0.011040
Li	      8.34573      4.23964      4.32408         0.013212      0.060658      0.017226
Li	      6.27581      6.34511      4.34070         0.046994     -0.015279      0.035609
Li	      6.24799      4.27118      6.32239        -0.010916     -0.050931      0.040649
Li	      4.33630      8.29848      4.40826         0.073709      0.019691      0.018905
Li	      2.18215      6.12604      4.40540         0.005292      0.000567      0.066180
Li	      2.01642      4.18037      6.18584         0.019917      0.006928     -0.072711
Li	      4.22120      6.41117      6.22061        -0.040724      0.036925     -0.002406
Sc	      6.25513      6.24339      8.44553        -0.039307     -0.061448     -0.011931
V	      6.31754      2.12878      4.41609        -0.118927     -0.036601      0.089401
Cr	      8.38137      8.33564      8.51711         0.107170     -0.045996     -0.118693
Fe	      2.16695      6.28243      8.33891        -0.106544     -0.042634     -0.009640
Fe	      4.24945      6.26019      2.33428        -0.049557     -0.042023     -0.190010
Co	      6.34477      6.25872     12.68620         0.044538      0.119760      0.100647
Co	      2.14164      4.08548      2.18190         0.088628     -0.001750      0.027680
Co	      8.34290      6.26860      6.34497         0.074622      0.142182      0.030865
Cu	      4.14791      4.18251      4.32035         0.042320      0.029412      0.041823
O	      2.02429      2.02470      2.10642         0.083914      0.241875      0.049880
O	      4.28402      4.25631      1.87112        -0.036180     -0.059934     -0.082715
O	      4.37022      2.15785      4.26239         0.055327     -0.020581      0.011274
O	      6.20627      4.00138      4.20421        -0.013254      0.050654     -0.053345
O	      6.30649      2.08383      6.26197        -0.091488     -0.029702     -0.104835
O	      8.54351      4.38635      6.45681        -0.087439     -0.141127     -0.032622
O	      2.21418      4.14730      4.15257        -0.070286     -0.039685     -0.143688
O	      4.22422      6.16103      4.22085        -0.019578      0.003324      0.148403
O	      4.21724      3.97049      6.55220        -0.043129     -0.091657      0.048191
O	      6.37673      6.22843      6.42607         0.047758     -0.001282      0.083362
O	      6.20561      4.14155      8.56172        -0.075947      0.014350      0.069472
O	      8.42453      6.30799      8.52483         0.021523     -0.081464      0.129021
O	      2.02571      6.21960      6.41215         0.003824      0.020205     -0.122869
O	      4.21587      8.50339      6.33033         0.019859     -0.000442     -0.021414
O	      4.16879      6.17946      8.46390         0.058480     -0.062810     -0.030640
O	      6.36622      8.34857      8.65950        -0.033775      0.016110      0.039770
O	      6.26659      6.43969     10.66884         0.001694      0.033674     -0.068789
O	      8.17121      8.39766     10.56614         0.065196      0.018259      0.017181
