# total energy = -220.96204700 eV
 
CRYSTAL
PRIMVEC
0.023071 6.267710 6.214315 
6.326398 0.037902 6.199482 
4.244321 4.196120 -0.002144 
PRIMCOORD
36 1
Li	      0.14903      6.13874      6.16258         0.004097     -0.026362      0.019316
Li	      2.25274      8.30913      6.11169         0.009378      0.016472     -0.009483
Li	      4.34487      6.17806     10.28800         0.041218     -0.008679     -0.019077
Li	      6.50373      8.24887     10.28329         0.095442     -0.054130      0.016378
Li	      2.13449      4.18548      2.11689        -0.020060      0.025654      0.005792
Li	      4.22455      4.19876      4.12257        -0.018825      0.003741      0.024019
Li	      6.22803      8.50467      6.23726        -0.002920     -0.029455      0.015000
Li	      8.44584      8.45692      8.34873         0.027335      0.005664     -0.009815
Li	      6.29143      6.35967      8.41388        -0.010464     -0.030419      0.008294
Sc	      4.16476      2.18829      6.15492        -0.040596      0.075199      0.053824
V	      6.41897      4.16011      6.17108        -0.128105      0.007688      0.016844
Cr	      6.39567     10.45877      8.29615        -0.008476     -0.075327      0.040166
Fe	      4.31806      8.36687      8.28736        -0.115879      0.078834      0.013493
Fe	      4.22332      6.22443      2.10826         0.066818      0.119932     -0.051713
Co	      2.07855      2.14254      4.13885        -0.049790     -0.078342      0.116118
Co	      4.24609      8.40340      4.23069         0.147253      0.399228      0.078031
Co	      8.38509      6.32715     10.39414         0.217545      0.164422      0.064067
Ni	      4.20628      6.29290      6.25881         0.062410      0.002063     -0.161102
O	      2.06120      2.05934      2.20429         0.023832     -0.013496      0.009469
O	      4.33633      4.25276      2.06445        -0.079918     -0.077620     -0.018836
O	      4.02097      2.17876      4.08112        -0.069903      0.020924      0.039211
O	      6.33283      4.34936      4.19759         0.011280      0.037725     -0.042492
O	      6.29914      2.28434      6.12882         0.075829      0.010366     -0.041772
O	      8.22401      4.26318      6.14710         0.145453      0.019394     -0.049624
O	      1.91445      4.09126      4.14660        -0.033563     -0.091118     -0.082345
O	      4.34167      6.40769      4.11488         0.042758     -0.065872      0.029099
O	      4.42808      4.22689      6.15325        -0.047921     -0.106493     -0.019194
O	      6.32710      6.19011      6.10968         0.028212     -0.007142     -0.082635
O	      6.36075      4.15542      8.00187         0.009660      0.003848     -0.012165
O	      8.60865      6.27693      8.24034        -0.128529     -0.012786     -0.081654
O	      2.17514      6.27325      6.28554        -0.065061     -0.018616      0.057998
O	      4.22426      8.35358      6.33102        -0.004308     -0.012507     -0.039978
O	      4.16132      6.35810      8.29005        -0.012213     -0.021192      0.154606
O	      6.28280      8.45241      8.35339         0.144441      0.081180     -0.006880
O	      6.40151      6.17201     10.35926        -0.237153     -0.173056     -0.003557
O	      8.71507      8.36641     10.31826        -0.079276     -0.169725     -0.029404
