# total energy = -222.78768352 eV
 
CRYSTAL
PRIMVEC
0.018181 6.277818 6.116085 
6.409092 0.003061 6.131257 
4.285931 4.209047 -0.011044 
PRIMCOORD
36 1
Li	      6.39154      4.12059      2.09932         0.023536     -0.031088      0.041576
Li	      4.47742      8.41857      8.22959         0.010236     -0.024655      0.000405
Li	      6.32377      2.24530      4.08614         0.016729     -0.019756     -0.001109
Li	      4.30027      4.17302      4.12058        -0.055567     -0.027148      0.055366
Li	      4.31828      2.23738      6.01408         0.005263     -0.030018      0.005476
Li	      6.25898      4.16397      6.05970        -0.033517      0.008967      0.019667
Li	      4.31112      8.31410      4.07285        -0.009809     -0.037214      0.009091
Li	      2.35161      6.16718      4.07121         0.035697     -0.003732     -0.014095
Li	      2.24297      4.16997      6.12062         0.069805     -0.023084     -0.042152
Sc	      6.48501      6.28700      8.07979        -0.089344      0.071582      0.007278
V	      0.16178      6.21777      6.05441        -0.051372     -0.249043     -0.191269
Cr	      6.41344      6.30125      4.07080        -0.050606      0.312034     -0.120360
Fe	      8.41252      4.26651      4.12712         0.151869     -0.079155      0.049657
Fe	      8.52587      8.38734      8.15781        -0.054686      0.196162      0.096088
Co	      8.53589      8.36946     12.21209         0.087576      0.165260     -0.012033
Co	     10.66459      6.30639      8.15689         0.089974     -0.103312      0.038559
Co	      2.15366      4.17751      2.04065        -0.042589     -0.145919     -0.264183
Co	      4.26597      6.26939      6.07021         0.105729      0.059360      0.026560
O	      1.90795      2.11365      2.02217         0.062240      1.018995     -0.161675
O	      4.23208      4.35495      1.88538        -0.735080      0.009590      0.304818
O	      4.16106      2.02714      4.05021        -0.077105     -0.006053      0.004110
O	      6.47191      4.28045      4.09235        -0.036981     -0.011350      0.005776
O	      6.40063      1.92632      6.22906        -0.099900     -0.124376      0.120501
O	      8.69952      4.18457      6.17634         0.011227     -0.524524      0.419897
O	      2.16056      4.12437      3.90251        -0.038171     -0.166011     -0.319343
O	      4.36928      6.29867      4.02370         0.106915     -0.003976     -0.258001
O	      4.26589      4.26833      6.20618        -0.053687     -0.146320      0.097402
O	      6.40273      6.34032      6.07630        -0.139078      0.006237      0.033499
O	      6.41477      4.09373      8.13936         0.595217     -0.000359     -0.016438
O	      8.65665      6.31727      8.18755        -0.048954     -0.745146      0.024806
O	      1.98763      6.25759      6.09638         0.128319      0.358881      0.022968
O	      4.28308      8.57259      6.19693         0.016921      0.482406     -0.008834
O	      4.36986      6.24205      8.18601         0.116067     -0.128090      0.124241
O	      6.53617      8.31519      8.20753         0.073501     -0.125223     -0.038111
O	      6.35055      6.30566     10.37862        -0.057560      0.031985     -0.089394
O	      8.59244      8.51361     10.20510        -0.032814      0.034093      0.029255
