# total energy = -211.06493941 eV
 
CRYSTAL
PRIMVEC
-0.008713 6.244707 6.336189 
6.207146 -0.019880 6.347593 
4.134906 4.167499 -0.010293 
PRIMCOORD
36 1
Li	      4.05158      4.14313      0.08906        -0.062596      0.032031      0.050855
Li	      8.27234      2.14768      6.39053        -0.019770     -0.062023      0.055767
Li	      6.22820      2.04483      8.39984         0.003833     -0.048360      0.017047
Li	      2.10268      4.12025      2.03091         0.015085      0.010670      0.018713
Li	      4.10911      4.16090      4.31867        -0.019168     -0.040499     -0.033886
Li	      4.17936      2.09803      6.36443         0.043835      0.029366     -0.009437
Li	      2.10339      4.17516      6.30237         0.051966      0.002268     -0.003624
Li	      4.12472      6.14783      6.30248        -0.034029      0.025366     -0.005661
Li	      4.13908      4.13210      8.32956        -0.019759     -0.000314     -0.058906
Sc	      6.21383      2.09501      4.32879        -0.062910     -0.123777      0.000253
V	      6.29065      6.14087      8.28514        -0.029078      0.187972      0.212903
Cr	      4.12253      8.36511      8.35267        -0.017154      0.137560     -0.084730
Fe	      2.03645      6.28593      8.30567         0.073137     -0.071490     -0.053713
Fe	      2.16671      6.17120      4.37045        -0.237378      0.078816      0.032656
Cu	      4.10961      8.30301      4.30499         0.011409      0.057467     -0.019180
Ni	      8.28145      4.14367      4.29114         0.091744     -0.028764     -0.065273
Ni	      2.05444      2.11337      4.20005        -0.071608      0.131801      0.029193
Ni	      6.18160      4.11053      6.32256        -0.209501     -0.229889      0.017869
O	      4.30845      4.13483      6.32239        -0.204560      0.257989     -0.038185
O	      2.14022      2.00990      2.14379         0.041345      0.109827     -0.133689
O	      4.21308      4.03066      2.11387        -0.121423     -0.108045      0.032075
O	      4.12082      2.04722      4.07384         0.148137      0.081335      0.031389
O	      6.24157      4.17923      4.11606        -0.085326     -0.186753      0.087155
O	      6.16438      2.15864      6.35342         0.121395     -0.462270     -0.122762
O	      8.10347      4.16412      6.28993         0.218451      0.210178      0.118302
O	      1.96214      4.20413      4.25890         0.044697     -0.054054     -0.032769
O	      4.09939      6.32313      4.17536         0.069896     -0.141896      0.027830
O	      6.20670      6.22284      6.47964         0.055974      0.229991      0.067308
O	      6.14867      4.37828      8.38625         0.039723     -0.044444     -0.139176
O	      8.04679      6.26069      8.53315         0.067528     -0.019020     -0.049453
O	      2.06958      6.20797      6.36491         0.004961      0.010012     -0.057554
O	      4.11439      8.30379      6.56967        -0.013620     -0.012920      0.135079
O	      4.22204      6.35753      8.50989         0.028056      0.007903     -0.093036
O	      6.15139      8.26237      8.45612        -0.058854      0.038978      0.025831
O	      6.21371      6.20892     10.45466         0.159159      0.033925     -0.021549
O	      8.30478      8.23288     10.56329        -0.023595     -0.038938      0.062360
