# total energy = -212.38668349 eV
 
CRYSTAL
PRIMVEC
-0.005752 6.175999 6.433312 
6.262177 -0.014748 6.442675 
4.152780 4.101187 0.012465 
PRIMCOORD
36 1
Li	      6.30464      6.10632     12.70807        -0.011182      0.026797     -0.012855
Li	      8.37748      8.14636     12.74607        -0.018331      0.039456     -0.004476
Li	      6.26964      8.15527     10.78831         0.027223      0.014484      0.002759
Li	      2.03172      4.19203      2.33718        -0.004113     -0.041119     -0.003456
Li	      2.09218      2.06225      4.29290        -0.004124     -0.039152     -0.007445
Li	      4.18460      2.09295      6.47228         0.008489     -0.025520      0.121310
Li	     10.32550      8.31809     10.86926         0.027188     -0.089859      0.064165
Li	      8.29545      6.13789     10.72179         0.014587      0.022044     -0.034148
Li	      6.39317      6.12317      8.71827         0.059484      0.054162      0.043889
Sc	      4.09308      6.15871      2.21737        -0.054405      0.012825      0.117755
V	      6.41958      4.12302      6.46259        -0.247975      0.042576      0.107144
Cr	      4.14586      2.03730      2.14635        -0.086889     -0.095501     -0.192777
Fe	      2.08781      6.17112      8.49068        -0.294053      0.046099     -0.045503
Fe	      6.20285      8.17967      6.38923         0.147910     -0.178816     -0.032170
Cu	      4.29485      6.18215     10.70163        -0.074520      0.056402      0.007913
Cu	      4.14295      4.09083      4.35620         0.077922     -0.189285      0.089678
Ni	      4.13096      6.15186      6.36611         0.017585      0.086261     -0.155124
Ni	      8.30583      8.21295      8.61470         0.016866     -0.268079      0.375341
O	      6.17459      6.15386     10.75027         0.138241      0.159716      0.001921
O	      8.37540      8.42142     10.66003        -0.144222     -0.211364     -0.043614
O	      2.11830      1.98159      2.13483         0.035565     -0.004036      0.040114
O	      4.23075      4.03059      2.15541        -0.161111      0.122939      0.095547
O	      4.17753      1.92080      4.15739         0.044774      0.292832     -0.076075
O	      6.08794      4.08796      4.42497         0.197057     -0.049988      0.155560
O	      6.25496      2.28789      6.48423        -0.075670     -0.162116     -0.018808
O	      8.14243      4.16155      6.44965         0.343701      0.021847     -0.159651
O	      2.23075      4.06877      4.40778        -0.003537     -0.037835     -0.002781
O	      4.15030      6.11485      4.32061         0.017642      0.084815     -0.158045
O	      4.15532      4.09614      6.53728        -0.063507     -0.068217     -0.467759
O	      6.19510      6.02085      6.43424         0.076570      0.045213     -0.068407
O	      6.23523      4.11942      8.35981         0.152562      0.087363     -0.017805
O	      8.37253      6.17921      8.62367        -0.046789     -0.104746      0.134006
O	      2.07386      6.09675      6.48018        -0.131252      0.177132     -0.053058
O	      4.23012      8.17983      6.53764        -0.145738      0.136311     -0.068607
O	      4.04017      6.19074      8.49485         0.322319      0.127849      0.226908
O	      6.19652      8.25640      8.48341        -0.158268     -0.091489      0.038552
