# total energy = -211.10039099 eV
 
CRYSTAL
PRIMVEC
-0.025727 6.045554 6.435924 
6.434806 -0.030412 6.440800 
4.271908 4.015699 -0.003044 
PRIMCOORD
36 1
Li	      4.30130      6.04573     10.68505        -0.011943      0.060878     -0.123057
Li	      2.07338      4.02411      2.36289         0.010817     -0.029645      0.013925
Li	      4.12436      4.03619      4.49160         0.020782     -0.166635     -0.106767
Li	      6.20806      4.02302      6.36356         0.072866      0.037796      0.054330
Li	      0.15406      4.04520      4.27585        -0.087466      0.001540      0.016753
Li	      2.08725      5.90559      4.34373        -0.019898      0.126376      0.005866
Li	      2.31875      3.99965      6.30641        -0.097546     -0.068527      0.025674
Li	      4.30142      5.88789      6.32771         0.066138      0.109827      0.117268
Li	      4.38214      4.03324      8.34253         0.010401      0.164766      0.062688
Sc	     10.59254      6.05449      8.71389         0.135679      0.036149     -0.156736
V	      8.64415      8.12075     12.68709         0.207497      0.036360      0.305164
Cr	      4.18893      2.00258      2.24823        -0.041895      0.183939     -1.105120
Fe	      6.40645     10.00915      8.62756         0.205910      0.117964     -0.276089
Fe	      6.54177      5.95843      8.57112        -0.376164      0.144103     -0.193638
Cu	      6.47501      6.03574     12.78052        -0.073843     -0.143964      0.071814
Cu	      6.41873      2.01868      4.26495        -0.211557      0.023951     -0.051989
Cu	      6.32961      6.05639      4.43349         0.333307     -0.154124     -0.302943
Cu	      8.45303      5.99464      6.44185        -0.039274     -0.061361     -0.052193
O	      4.27564      3.85862      6.43346         0.005367      0.054185     -0.022262
O	      6.42149      5.99615      6.57753        -0.089503     -0.063118      0.008243
O	      6.40106      6.13459     10.53423         0.104309     -0.045169      0.479338
O	      2.16175      1.98866      2.04122        -0.313404      0.027294     -0.200907
O	      4.35003      3.92911      2.14239         0.067661      0.779295     -0.183759
O	      4.07057      1.98799      4.08804        -0.274970      0.019501      1.341028
O	      6.46685      3.96138      4.15900        -0.082800      0.306130      0.305218
O	      6.67483      1.97524      6.42285         0.067760      0.196720     -0.088478
O	      8.68245      3.94254      6.38532        -0.023993      0.160842      0.057616
O	      2.09693      3.95601      4.36607        -0.012256     -0.195685     -0.035910
O	      4.36852      6.01283      4.26882         0.062077      0.031808      0.185714
O	      6.39337      4.06981      8.59205         0.024028     -0.429209      0.131549
O	      8.54357      6.01419      8.63964         0.278121     -0.012362      0.025513
O	      2.07413      6.20414      6.52281        -0.027500     -0.066188     -0.091128
O	      4.05444      8.12140      6.61275        -0.110886     -0.169129     -0.241092
O	      4.16395      6.15701      8.50412        -0.014518     -0.960149      0.105996
O	      6.19012      8.01590      8.62591         0.294873      0.006260      0.126700
O	      8.70542      8.01577     10.97947        -0.058178     -0.060420     -0.208328
