# total energy = -211.11018635 eV
 
CRYSTAL
PRIMVEC
-0.009574 6.308843 6.281561 
6.300047 -0.011888 6.283572 
4.205346 4.212595 -0.013255 
PRIMCOORD
36 1
Li	      6.28022      6.28444     12.42855         0.045985     -0.028308     -0.039327
Li	      6.16278      2.19967      8.32736         0.022212      0.027989     -0.007302
Li	      8.35799      4.30182      8.31442         0.045871      0.000286     -0.001369
Li	      8.47873      6.27496      6.44465         0.022512     -0.017440      0.001041
Li	      6.31119      4.14457      6.41641         0.011869     -0.016083      0.037236
Li	      6.23248      4.35015     10.35180        -0.034944      0.029561     -0.055001
Li	      8.21989      6.37440     10.38421        -0.034649      0.030659     -0.022902
Li	      2.11615      4.22197      6.26595         0.015952     -0.009224     -0.020716
Li	      6.38604      6.21793      8.49536         0.003421     -0.047128      0.024258
Sc	      2.07945      6.28946      8.30365        -0.076235      0.070763     -0.057134
V	      6.22838      6.40909      4.32082         0.094682     -0.031853      0.175765
Cr	      8.32855      2.17986      6.23996        -0.139454      0.035862      0.125949
Fe	      4.23092      8.38968      8.30916        -0.019154     -0.016824      0.071887
Fe	      4.22040      4.17850      4.27159        -0.021408     -0.027749     -0.069491
Ni	      4.28538      6.26323     10.51735        -0.149646      0.094056      0.025132
Ni	      6.34065      8.27496     10.48849        -0.110614      0.153296      0.057208
Ni	      4.17110      6.30902      6.27551         0.093500     -0.054526     -0.035703
Ni	      4.25968      4.10746      8.34261        -0.166129      0.097407     -0.017893
O	      6.15824      4.18034      8.36353         0.199109      0.029875      0.024611
O	      8.41546      6.40182      8.36906        -0.033408     -0.164324      0.047438
O	      2.17931      2.08263      2.10346         0.017888     -0.025936     -0.015798
O	      4.24285      4.08290      2.24482         0.007712     -0.000148      0.012926
O	      4.07458      2.09573      4.14824         0.038039      0.020905     -0.059013
O	      6.30216      4.37127      4.16068         0.013271     -0.034805     -0.043557
O	      6.48196      2.06395      6.23588         0.070147      0.017070      0.096845
O	      8.43036      4.02195      6.27477        -0.011548     -0.008832      0.091613
O	      2.16194      3.98612      4.16567        -0.025918      0.058224     -0.020560
O	      4.42657      6.23435      4.15910        -0.084758      0.028900     -0.087684
O	      4.17401      4.26830      6.18759         0.003122     -0.071065      0.011528
O	      6.29871      6.33011      6.06584         0.057452      0.015535     -0.157639
O	      2.13624      6.46441      6.26164        -0.139186     -0.028428      0.013155
O	      4.06818      8.35216      6.35617         0.027904      0.112018     -0.077050
O	      4.18421      6.30346      8.37379        -0.007625      0.036163      0.029064
O	      6.27265      8.42675      8.38965        -0.006244      0.010019     -0.071687
O	      6.24579      6.32368     10.47814         0.145605     -0.155959     -0.014572
O	      8.34916      8.46137     10.54490         0.124667     -0.129956      0.028742
