# total energy = -217.41268299 eV
 
CRYSTAL
PRIMVEC
-0.002874 6.359559 6.137081 
6.261652 -0.005967 6.140206 
4.188789 4.256141 -0.018580 
PRIMCOORD
36 1
Li	      6.30684      4.26502      2.09581        -0.064506      0.069613      0.251387
Li	      4.21067      0.02180      4.11455        -0.291333      0.048653      0.067402
Li	      6.24142      8.35956     10.24218        -0.047342      0.230409      0.030257
Li	      2.11987      2.10768      4.01970        -0.045858     -0.159933      0.010138
Li	      4.27871      4.24004      3.98231         0.209690      0.023881      0.033725
Li	      6.32795      4.16448      6.05145        -0.024759      0.021847     -0.263064
Li	      6.28472      4.40325     10.20008         0.008611     -0.088442      0.012655
Li	      8.18495      6.31398     10.21786         0.151526     -0.022546     -0.014635
Li	      6.25685      6.40516      8.35044         0.025849     -0.065906     -0.063427
Sc	      4.24490      6.30920      6.00865         0.126620     -0.148124     -0.701164
V	      8.36649      8.54366      8.34194         0.293258     -0.271111      0.275459
Cr	      4.14873      2.11382      6.10363         0.069309     -0.025370     -0.358396
Fe	      4.27231      2.11424      2.16992        -0.360874      0.050502     -0.001036
Fe	      2.07117      4.24835      2.12770        -0.212043     -0.020020     -0.024899
Fe	      2.05756      4.27444      6.03800        -0.039702     -0.015054     -0.289486
Co	      4.19406      6.38980      2.13099         0.048458     -0.051590     -0.919698
Cu	      6.26393      6.36343     12.19603        -0.048252     -0.009392      0.644471
Ni	      8.31444      2.13732      6.08511        -0.009368      0.027573     -0.161424
O	      6.26230      4.23706      4.09528         0.042916     -0.033905      0.032286
O	      6.22777      6.36560     10.35202        -0.039432      0.028436     -0.382762
O	      2.15018      2.22921      1.95737         0.032309     -0.120510      0.190847
O	      4.09944      4.20299      1.93472         0.254617      0.153140     -0.106271
O	      4.20239      2.13099      4.06150         0.033880     -0.033144      0.223454
O	      6.21876      2.14070      6.30875        -0.022015     -0.002314      0.375367
O	      8.32400      4.33136      6.25111         0.063714      0.056369     -0.298716
O	      2.07017      4.27608      4.04807        -0.010102      0.039257      0.268938
O	      4.20484      6.32663      3.93114         0.028833      0.038792      0.673825
O	      4.08940      4.18601      6.27389         0.125133     -0.060054      0.073636
O	      6.32715      6.48676      6.04624         0.151029     -0.027015      0.087751
O	      6.16155      4.17926      8.21263        -0.090147     -0.051198      0.005701
O	      8.36042      6.42326      8.09311        -0.126337      0.139642      0.274125
O	      2.15644      6.33144      6.08805        -0.263264     -0.011785      0.056945
O	      4.20910      8.37259      6.22638        -0.062915      0.172888     -0.050345
O	      4.23353      6.25226      8.11886        -0.020566      0.104535      0.167462
O	      6.27605      8.51120      8.09588         0.156147     -0.033298      0.098929
O	      8.31849      8.46681     10.11640        -0.043085      0.045171     -0.219437
