# total energy = -92.81272938 eV
 
CRYSTAL
PRIMVEC
2.060476 4.123395 2.006561 
4.047805 -2.030966 -1.994676 
0.007741 4.137510 -4.048917 
PRIMCOORD
16 1
Li	      1.97876      2.07774     -0.04046        -0.070117     -0.078155      0.092073
Li	      3.98019      2.07703     -2.03166         0.134635     -0.178032      0.042620
Li	      0.03799      2.05712     -2.00562        -0.091233     -0.084967      0.132418
Li	      1.98738      4.04717     -1.92316        -0.153306     -0.028618      0.006463
Mn	      0.02295      4.07262     -3.99000        -0.923374      0.377781     -0.696637
Mn	      4.01041      4.10575     -0.05495         0.651595      0.208226      0.739584
Ni	      4.02196      6.08491     -1.95914         0.168119      0.576380     -0.215092
Ni	      4.02893      4.09150     -3.93301         0.098203      0.502119     -0.382191
O	      3.96463      4.09290     -1.91294         0.161613     -0.342022     -0.207071
O	      4.01907      2.13064     -4.08087         0.327295     -0.708435     -0.208094
O	      4.15332      2.10363     -0.00118         0.379358     -0.204183      0.141409
O	      3.87481     -0.08630     -1.94643         0.437714     -0.629879     -0.117427
O	      2.14975      4.05238      0.08144        -0.451080      0.121046      0.498236
O	      2.03008      1.85737     -1.98910        -0.269571     -0.119524      0.233355
O	      2.00855      6.29419     -2.01153        -0.246363      0.395942      0.088724
O	      1.94009      4.07052     -4.08259        -0.153490      0.192319     -0.148371
