# total energy = -218.87071608 eV
 
CRYSTAL
PRIMVEC
-0.010839 6.261172 6.252670 
6.277093 -0.015531 6.257711 
4.177816 4.170573 -0.003460 
PRIMCOORD
36 1
Li	      8.27660      2.12407      6.22079        -0.024257     -0.010198     -0.087381
Li	      6.15601      4.21245      2.16989         0.034369      0.007216     -0.002769
Li	      4.22607      2.14094      2.15654         0.080434     -0.060134      0.017462
Li	      8.33701      4.19383      4.21568        -0.013198     -0.027009      0.002070
Li	      6.20626      2.11876      4.20808        -0.008550      0.038379     -0.026992
Li	      4.21617      4.11526      4.11210         0.012549     -0.005157      0.038561
Li	      4.21409      2.06238      6.20815        -0.020356      0.052570      0.012969
Li	      6.34197      4.06678      6.19156        -0.011534     -0.038432      0.002271
Li	      6.26502      4.19768     10.40048        -0.051006     -0.011340     -0.035754
Sc	      4.18830      6.34590      6.22709        -0.093180     -0.065033      0.257782
V	      8.32614      8.36737      8.39949         0.434604     -0.333831      0.003093
Cr	      2.23739      1.98541      4.16792         0.380435     -0.102481     -0.028270
Fe	      6.21184      0.02135      6.22841         0.110482     -0.238251     -0.001243
Fe	      2.10529      4.08735      2.01749        -0.341831      0.116227     -0.003228
Fe	      8.31975      6.21131     10.41434         0.114246     -0.001779      0.061401
Co	      6.26447      6.23325      8.36061        -0.121304      0.060074      0.006547
Cu	      0.05918      2.03905      2.04512        -0.061449      0.099624      0.003999
Cu	      6.26990      8.34986      6.27492         0.028489      0.022896      0.068252
O	      6.27309      1.98935      6.34905        -0.007714      0.150311     -0.098471
O	      2.15190      2.12807      2.20648         0.177275     -0.123180      0.154506
O	      4.10029      4.18595      2.00699         0.210453      0.023963     -0.075017
O	      4.04468      2.11017      4.19995        -0.403834     -0.051038     -0.024335
O	      6.24236      4.34455      4.16164         0.013731      0.293865      0.054209
O	      8.42682      4.10051      6.30957        -0.065214     -0.007666     -0.019804
O	      2.08385      4.13644      4.05408        -0.036568     -0.113848     -0.222684
O	      4.18368      6.26086      4.11248         0.151315     -0.011235      0.087249
O	      4.06276      4.20959      6.42977         0.126616     -0.040761      0.095163
O	      6.24228      6.21722      6.28232         0.106744      0.019786     -0.092371
O	      6.16710      4.25767      8.30314         0.678164      0.110310     -0.006956
O	      8.20335      6.27290      8.37677        -0.191288     -0.446394     -0.026599
O	      2.07511      6.32499      6.15315        -0.090751      0.011870     -0.104026
O	      4.30183      8.40319      6.26051        -0.044830      0.064585      0.013301
O	      4.28755      6.10427      8.35992         0.165674      0.778927     -0.151657
O	      6.43497      8.20676      8.41088        -1.202693     -0.176210      0.092382
O	      6.33287      6.24491     10.37024        -0.121926      0.014684      0.004928
O	      8.37804      8.23713     10.26042         0.085902     -0.001310      0.031410
