# total energy = -219.02326448 eV
 
CRYSTAL
PRIMVEC
0.018505 6.319672 6.284640 
6.189506 0.032678 6.270155 
4.160246 4.236904 -0.011861 
PRIMCOORD
36 1
Li	      4.12018     10.42788      6.23683        -0.044382     -0.070296     -0.053828
Li	      8.38656      8.56091     12.46252         0.068755      0.015899     -0.042611
Li	      4.11134      2.14386      2.05640        -0.079858     -0.002006     -0.037274
Li	      8.39129     10.48660     10.47582         0.024574     -0.065493      0.022589
Li	      2.08431      4.24837      2.11842         0.019881      0.016227      0.052420
Li	      4.11093      4.25265      4.14201        -0.006917     -0.034544      0.012084
Li	     10.28861      8.53019     10.42439        -0.053886      0.028694      0.027994
Li	      8.37436      8.45770      8.45161        -0.088860      0.004544      0.080462
Li	      6.16127      6.23686      8.50548        -0.008187     -0.150060      0.018136
Sc	      8.31363      6.33678      6.32561        -0.044492     -0.037152     -0.004684
V	      6.26141     10.54428      8.39950         0.432831      0.075912     -0.126887
Cr	      2.08361      2.14503      4.13434         0.142136      0.083731      0.026036
Fe	      6.26988      8.31250     10.45027        -0.125952      0.067406      0.068698
Fe	      6.25649      4.21208      6.41521        -0.099985      0.122812     -0.432435
Fe	      1.97668      4.28400      6.19014         0.083931     -0.074663      0.181938
Co	      0.03661      2.11277      2.10162        -0.608741      0.259036      0.432176
Ni	      8.28424      6.37759     10.38480         0.005754     -0.068519      0.091720
Ni	      4.12788      6.36882      6.25575         0.009613      0.032006     -0.130627
O	      1.98550      2.01161      2.15454         1.264500     -0.114165     -0.013084
O	      4.35699      4.42431      2.04061         0.004248     -0.604131     -0.194251
O	      4.15369      2.15301      4.21291        -0.079443      0.032909     -0.009382
O	      6.23059      4.29569      4.03910        -0.084846      0.056844      0.037228
O	      6.21510      2.21385      6.30651        -0.043636      0.171147     -0.885793
O	      8.18179      4.29605      6.27782         0.075108      0.008563      0.034373
O	      2.10100      4.16514      4.24346         0.038597     -0.097372     -0.148692
O	      4.22111      6.34458      4.04493         0.078840     -0.003562      0.994600
O	      4.13894      4.25958      6.29024         0.048879     -0.085146      0.063815
O	      6.19431      6.34128      6.20385         0.090597      0.027009     -0.039628
O	      6.20301      4.12316      8.32037         0.090724      0.390786      0.053427
O	      8.43430      6.33077      8.37879        -0.823894     -0.029500     -0.232922
O	      2.09722      6.26655      6.39183        -0.153820      0.057651      0.127168
O	      4.25161      8.40415      6.29618        -0.170081      0.126137     -0.033486
O	      3.92394      6.40760      8.32646        -0.098028     -0.114761      0.078175
O	      6.16825      8.68818      8.39637         0.053127     -0.003062     -0.074100
O	      6.23887      6.41705     10.41267        -0.149904     -0.168041      0.090994
O	      8.17048      8.41987     10.45695         0.232817      0.145162     -0.034350
