# total energy = -221.81330139 eV
 
CRYSTAL
PRIMVEC
-0.014825 6.419454 6.201885 
6.137635 -0.032449 6.219306 
4.088027 4.287943 -0.017888 
PRIMCOORD
36 1
Li	      4.08883     10.62033      6.23066        -0.039740     -0.072147     -0.015605
Li	      4.11080      2.11420      2.11873         0.037636     -0.028639      0.090520
Li	      4.05431      0.12803      4.10854        -0.083471      0.056820      0.037731
Li	      2.09192      4.36280      2.09695         0.037282      0.054502      0.021400
Li	      2.13380      2.12944      4.12005         0.064625     -0.036682      0.063244
Li	      4.07121      2.09863      6.16454        -0.006672      0.061274     -0.104937
Li	      1.98953      4.31567      6.16905         0.073546      0.035676     -0.060910
Li	      4.11795      6.42636      6.18731         0.014430     -0.060534     -0.046957
Li	      8.14729      8.55261      8.27708         0.033698      0.029896     -0.030346
Sc	      2.09017      8.55183      6.26203         0.043729      0.090898     -0.236482
V	      6.13280      4.33620      6.24824        -0.467757      0.011463     -0.229769
Cr	      0.01808      4.26433      4.10276         0.182598      0.190223      0.017975
Fe	      2.11079      6.35529      8.21381        -0.145808     -0.206071      0.293694
Fe	      6.04853      2.07949      4.14313        -0.073491      0.199082     -0.001362
Fe	      6.09004      6.49110      8.20176        -0.248097     -0.016426     -0.017704
Co	      4.07904      4.19927      4.11144        -0.744016      0.059096     -0.017031
Co	      2.03914      6.41291      4.14214         0.022847     -0.033378      0.055565
Cu	     10.14347      6.33430      8.26997         0.108959     -0.254183     -0.050755
O	      1.93412      1.97197      2.09653        -0.192563      0.032611      0.137138
O	      4.15824      4.16312      2.23736         0.099625      0.319241     -0.845681
O	      4.14817      2.13285      4.15683        -0.034941     -0.413513      0.042990
O	      6.07904      4.16885      4.15394         0.888182     -0.148675     -0.052573
O	      6.10792      2.23064      6.19763        -0.007817      0.019968      0.034784
O	      8.00104      4.20942      6.18821         0.100056     -0.106288      0.084127
O	      2.06242      4.46474      4.12438        -0.488223      0.082474     -0.015847
O	      3.96392      6.52093      4.07220         0.033301      0.224069      0.006326
O	      4.23984      4.28110      6.01120         0.427451      0.047189      0.853423
O	      6.15720      6.29117      6.25030         0.014720     -0.016737      0.017992
O	      6.09624      4.42573      8.22393         0.044900      0.014946      0.202442
O	      8.16191      6.41466      8.42222         0.237004      0.009520      0.079228
O	      2.01575      6.44038      6.20816         0.003101      0.062808     -0.121162
O	      4.08386      8.59800      6.05075        -0.018937     -0.029764      0.008426
O	      4.06809      6.41833      8.29821         0.139798      0.039218     -0.066133
O	      6.16026      8.53422      8.32794        -0.028452     -0.031722     -0.092743
O	      6.21202      6.37657     10.30019         0.048779     -0.084169     -0.060847
O	      8.18001      8.36654     10.35945        -0.076281     -0.102046      0.019837
