# total energy = -221.45363963 eV
 
CRYSTAL
PRIMVEC
-0.028439 6.445731 6.325771 
6.170072 0.041121 6.257399 
4.124866 4.262164 0.016645 
PRIMCOORD
36 1
Li	      4.06876      8.59112      8.35450        -0.060952     -0.014784     -0.014334
Li	      4.02876      6.40113      2.28877        -0.033577      0.005115      0.012225
Li	      4.03778      4.45516      4.24761        -0.050881     -0.011420      0.003621
Li	      8.22267      6.53093      6.38387        -0.046375     -0.044664      0.039068
Li	      4.16863      8.34340      4.25112         0.059336     -0.022682      0.005102
Li	      2.23906      6.36239      4.14433         0.012831     -0.062235      0.014276
Li	      2.13493      4.37302      6.14195         0.023260      0.005983     -0.074757
Li	      4.05384      6.36030      6.20508        -0.044322      0.000616     -0.035492
Li	      4.10859      4.34969      8.35775        -0.067188     -0.026943     -0.000483
Sc	      6.11894      6.41621      8.31911         0.231729     -0.025074     -0.042004
V	      6.09322      2.19105      4.08805        -0.006010     -0.155590      0.447861
Cr	      1.99868      2.22025      4.19237         0.009883      0.146712     -0.180285
Fe	      4.13611     10.64031      6.41722         0.040354      0.165638     -0.356180
Fe	      2.10536      8.54085      6.37054        -0.069177     -0.024704      0.108136
Fe	      5.96909      4.28306      6.35476         0.201078     -0.059118     -0.188612
Co	      6.16759     10.69987      8.44258         0.408399      0.125972      0.043397
Co	      2.09409      4.28376      2.14984        -0.218549     -0.003194      0.296331
Ni	      8.23381      4.28808      4.19485        -0.002589      0.049155      0.048889
O	      2.06827      2.31466      2.11132        -0.007472     -0.065804      0.026730
O	      4.22372      4.28663      2.01696        -1.482757      0.037988      0.232433
O	      4.25195      2.15205      4.19126         0.070067      0.086858     -0.019472
O	      6.17363      4.24904      4.18638        -0.111434     -0.213398      0.535339
O	      6.20144      2.20317      6.10694         0.011364     -0.046658      0.003008
O	      8.24465      4.22047      6.31775        -0.020105      0.071881      0.306999
O	      2.08029      4.17046      4.09851        -0.038668      0.061348     -0.448588
O	      4.21567      6.42143      4.22474         0.042080     -0.041506     -0.005443
O	      4.12910      4.26688      6.32471        -0.225726     -0.011526      0.067303
O	      6.17899      6.33257      6.23835        -0.030086     -0.037343      0.031355
O	      6.13335      4.35615      8.32599         0.842031     -0.138445      0.141587
O	      8.18101      6.23446      8.42131        -0.002357     -0.008712     -0.043858
O	      2.00846      6.54293      6.43809        -0.150582      0.055749     -0.821653
O	      4.05332      8.69613      6.27011         0.087629      0.016150     -0.016911
O	      4.02514      6.47648      8.48875         0.600184      0.037498     -0.054887
O	      6.16955      8.54835      8.59429         0.014696      0.123094     -0.017359
O	      6.12760      6.71898     10.53285         0.071338      0.076398      0.044091
O	      7.99958      8.67653     10.58263        -0.057448     -0.052355     -0.087432
