# total energy = -224.93315365 eV
 
CRYSTAL
PRIMVEC
0.013028 6.236304 6.448199 
6.195717 0.007804 6.453830 
4.130569 4.161109 0.004944 
PRIMCOORD
36 1
Li	      8.21962      2.19086      6.53626         0.007894     -0.016645     -0.071219
Li	      6.19959      4.21681      2.33724         0.014405     -0.041677      0.016315
Li	      8.17646      4.23181      4.31725         0.024339     -0.024283      0.002606
Li	      8.23121      4.10543      8.54845        -0.013256      0.058978      0.055818
Li	      2.14103      1.96394      4.21643        -0.060982      0.046566      0.058534
Li	      4.20996      4.10772      4.17893        -0.044850      0.060520     -0.016003
Li	      6.28073      4.16169      6.33573         0.022139      0.044635     -0.067416
Li	      6.22472      8.29027      6.53252        -0.007137      0.027000     -0.063625
Li	      6.18099      6.24521      8.61304        -0.024913      0.040413      0.003671
Sc	      4.24083      6.23322      6.48130        -0.018525     -0.056805     -0.111029
V	      2.04819      6.12082      4.31113         0.088618      0.248039      0.154058
Cr	      8.26415      8.34318      8.63792        -0.142306      0.094199      0.134715
Fe	      4.06319      4.13634      0.06137         0.137340     -0.016998     -0.131639
Fe	      6.15613      2.26477      4.29631         0.160654     -0.101036     -0.050717
Fe	      8.17288      6.24533      6.36613        -0.017300     -0.015935      0.067098
Co	      4.07408      2.08612      2.20274         0.049134     -0.050020      0.057629
Co	      0.11794      2.05911      2.15467         0.093254      0.117075     -0.018624
Co	     10.31688      8.32211     10.74395         0.064744     -0.030024      0.049486
O	      2.07338      2.08279      2.13863        -0.428833     -0.010663     -0.013850
O	      4.17594      4.16970      2.03536         0.034830      0.152314      0.043758
O	      4.17072      2.11091      4.35375        -0.063240     -0.016014     -0.142481
O	      6.19450      4.11761      4.33409        -0.019642      0.121972     -0.004904
O	      6.15249      2.01015      6.37219        -0.039979      0.052282      0.163337
O	      8.31067      4.26145      6.46941        -0.061939     -0.007703      0.025694
O	      1.94475      4.27688      4.21644        -0.244813     -0.235097     -0.021154
O	      4.04513      6.32169      4.32405         0.245065      0.238324     -0.087796
O	      4.13636      4.12636      6.62472         0.028680     -0.018375      0.033043
O	      6.25179      6.25176      6.46420        -0.042352      0.005886      0.081186
O	      6.14039      4.09264      8.81022         0.072057     -0.276604      0.216291
O	      8.36174      6.31514      8.72931         0.251513     -0.079321     -0.225215
O	      2.06989      6.25428      6.17734        -0.041277      0.019942     -0.002557
O	      4.13985      8.36271      6.33245        -0.007039     -0.033500     -0.034962
O	      4.12888      6.23134      8.53450         0.042002     -0.051980      0.030105
O	      6.20281      8.29904      8.75200         0.061066      0.010448     -0.061880
O	      6.28867      6.14607     10.78443        -0.280484     -0.307783      0.005129
O	      8.28844      8.23249     10.66884         0.161130      0.051871     -0.073402
