# total energy = -215.75866102 eV
 
CRYSTAL
PRIMVEC
0.024326 6.324496 6.260982 
6.352539 0.004391 6.280705 
4.234827 4.229694 0.003277 
PRIMCOORD
36 1
Li	      4.29865     10.31887      6.26657         0.115115     -0.153022      0.018269
Li	      2.33473      8.44056      6.21561         0.069289     -0.038558     -0.066779
Li	      4.27214      8.38488      8.19088         0.007236      0.055045     -0.149555
Li	      6.24191      6.42990      4.15733        -0.031755     -0.032984      0.000896
Li	      8.49535      6.32017      6.32231         0.011647     -0.012300     -0.023140
Li	      4.35582      8.37412      4.35972        -0.039433     -0.068671      0.167211
Li	      2.14825      6.30732      4.20157         0.010240     -0.004163      0.048350
Li	      6.12315      8.43696      6.22940        -0.107270      0.035796     -0.040345
Li	      4.24330      6.52294      6.24998        -0.053972      0.113179     -0.139102
Sc	      4.10233      4.20623      4.23118        -0.052766     -0.031051      0.054125
V	      6.37134      4.29530      6.31065         0.007513      0.100378     -0.071930
Cr	      2.14815      6.37999      8.13774        -0.048046      0.008401     -0.254426
Fe	      4.32164      6.35059     10.44096        -0.071307      0.025255      0.092799
Fe	      6.41559      8.39094     10.49308         0.003609      0.069907      0.119653
Fe	      4.19239      6.30903      2.14997         0.039511      0.020358     -0.150449
Cu	      6.42939      6.37400      8.35881        -0.019527      0.112473     -0.040409
Ni	      2.16210      4.16570      2.08489        -0.021444     -0.038638     -0.027823
Ni	      8.45285      8.45993      8.37736         0.072723     -0.032288     -0.037755
O	      4.25644      8.43918      6.26701        -0.031817     -0.022247      0.002711
O	      2.02016      1.98369      2.10756        -0.012772     -0.185343     -0.005858
O	      4.29273      4.29181      2.06591         0.119890      0.009158      0.057485
O	      4.35946      2.07141      4.22031        -0.010434      0.013720      0.046042
O	      6.37787      4.23962      4.33010         0.030328     -0.013467      0.042950
O	      6.36440      2.33234      6.26166        -0.024306     -0.043533      0.080593
O	      8.29177      4.24213      6.24874        -0.036937      0.007051     -0.043754
O	      2.15104      4.16391      4.11138         0.031574     -0.022722      0.112145
O	      4.21629      6.27252      4.08096        -0.030655     -0.070943      0.056188
O	      4.47038      4.23416      6.29501         0.066696     -0.016536     -0.089052
O	      6.38321      6.13377      6.40608         0.026894      0.009215      0.011688
O	      6.38967      4.11093      8.21894        -0.009103     -0.154472     -0.014974
O	      8.52101      6.32639      8.34178        -0.003193      0.002495      0.004867
O	      2.14249      6.31132      6.38100         0.004988      0.005368      0.153902
O	      4.15450      6.31312      8.43844        -0.047947      0.075052     -0.076464
O	      6.40117      8.68044      8.46069        -0.044530      0.249883      0.033743
O	      6.31770      6.41728     10.32430         0.054956     -0.027989      0.060086
O	      8.39352      8.55756     10.42044         0.025002      0.056193      0.068112
