# total energy = -215.41837787 eV
 
CRYSTAL
PRIMVEC
-0.002332 6.275354 6.531858 
6.317411 0.046320 6.480197 
4.216139 4.155682 0.025941 
PRIMCOORD
36 1
Li	      8.52114      8.37640     12.86826         0.050350     -0.020259      0.072410
Li	      2.20126      6.18914      8.67425        -0.012483     -0.044715     -0.009294
Li	      4.36265      8.23122      8.64047         0.058760      0.050356      0.037917
Li	      6.48722      8.31851     10.68872        -0.041026      0.037066     -0.036115
Li	      4.18801      4.21857      4.42621        -0.018950     -0.007643     -0.064940
Li	      4.18205      8.34491      4.54184         0.038096     -0.017309      0.063677
Li	      4.17134      6.38555      6.75939        -0.046472      0.068664      0.049767
Li	      8.34423      8.42908      8.74019        -0.067395     -0.005723     -0.034099
Li	      6.19995      6.36716      8.83395         0.018279      0.042235      0.029830
Sc	      8.42137      4.25224      8.64191         0.018773      0.044165      0.056123
V	      2.17343      2.05653      4.29246        -0.118326      0.144279     -0.249399
Cr	      2.15929      6.31837      4.41171        -0.009714     -0.036785      0.255697
Fe	      0.06569      6.24309      6.48306         0.009606     -0.100471     -0.024346
Fe	     10.48677      6.31847      8.72126         0.068537     -0.012903     -0.121040
Fe	      6.14248      4.18696      6.50340         0.081595      0.118633     -0.141865
Cu	      4.29495      6.13938     10.67576         0.061588     -0.113859      0.170342
Cu	      4.18382      2.12937      6.45492         0.028724     -0.040252     -0.033063
Cu	      6.31751      8.39980      6.71273         0.134822     -0.135080     -0.375183
O	      4.22002      6.26099      8.82150        -0.058564     -0.012317     -0.337948
O	      6.32372      8.34463      8.61159         0.108702     -0.013048      0.376751
O	      1.98622      2.10678      2.39234         0.061450      0.094035      0.044436
O	      4.16980      4.29151      2.00940        -0.085129     -0.087145      0.008567
O	      3.92937      2.07971      4.20001        -0.043328     -0.058383     -0.020127
O	      6.19086      4.38421      4.46036         0.019714     -0.036267      0.150102
O	      6.21622      2.17226      6.55666         0.014413     -0.066298      0.082241
O	      8.42217      4.26388      6.44612        -0.083745      0.024797      0.049663
O	      2.10992      4.08664      4.31452         0.022131     -0.048356     -0.124400
O	      4.25179      6.28447      4.25370        -0.043030     -0.002920      0.031550
O	      4.17871      4.07788      6.47682        -0.044768      0.142051      0.051273
O	      6.31413      6.25770      6.29615        -0.065397     -0.127332      0.120473
O	      6.35785      4.18218      8.46311         0.010116      0.052292     -0.047420
O	      8.48724      6.29512      8.89414        -0.020438     -0.093007      0.149333
O	      2.10667      6.24973      6.45253         0.141028      0.093862     -0.103171
O	      4.33252      8.43860      6.59523        -0.232606     -0.019165      0.061003
O	      6.47550      6.34406     10.98732         0.053524      0.016865     -0.049329
O	      8.47100      8.31554     10.96457        -0.008836      0.169937     -0.089415
