# total energy = -223.72625067 eV
 
CRYSTAL
PRIMVEC
0.041786 6.270549 6.179713 
6.348948 0.036229 6.184817 
4.267875 4.218150 -0.009989 
PRIMCOORD
36 1
Li	     10.56360      4.23494      6.17008         0.033222     -0.032664     -0.020401
Li	      2.23961      8.39230      6.20041         0.009033     -0.018458     -0.034808
Li	      2.15949      6.31576      8.16915        -0.028476     -0.007244     -0.013596
Li	      8.48914      4.19056      8.17912        -0.002477     -0.013906      0.019139
Li	      6.34002      6.32251      4.14731        -0.045033      0.009368      0.009359
Li	      6.42789      4.34062      6.22198        -0.003322      0.014526     -0.012164
Li	      6.32333      4.27698     10.27774         0.002820      0.046196      0.007960
Li	      4.30027      6.30688      6.20217        -0.004206      0.014404     -0.028122
Li	      6.34061      6.18095      8.23262        -0.002295     -0.031618      0.005402
Sc	      6.36805      8.39784      6.24797        -0.117325      0.021601     -0.046103
V	      4.33908      4.26381      4.06031         0.028686      0.063595      0.010287
Cr	      8.49088      6.28258      6.17534        -0.081904     -0.072184      0.018349
Fe	      4.02737      2.03062      2.00799         0.006500      0.079885      0.015597
Fe	      6.45059      8.34391     10.31375         0.063743      0.043979      0.033040
Fe	      6.45504      2.22672      8.14935         0.103060     -0.092616      0.085501
Fe	      2.15561      6.29214      4.18150         0.018205      0.025431     -0.084220
Co	      4.28406      4.23909      8.23148         0.156718      0.003175      0.060397
Cu	      8.58292     10.46313     10.34663         0.039955     -0.039176      0.024837
O	      2.09543      2.11397      2.06515        -0.038127      0.005238      0.004560
O	      4.23851      4.16827      2.15298        -0.008174     -0.010977      0.023047
O	      4.29682      2.18444      4.08479         0.019652      0.127083     -0.000816
O	      6.15101      4.14954      4.16938        -0.188276      0.041377     -0.008903
O	      6.27835      2.09476      6.15552        -0.041999     -0.012122     -0.021424
O	      8.49865      4.31635      6.07969        -0.031838      0.046156      0.069930
O	      2.33420      4.26514      4.13266         0.074189     -0.038904      0.000911
O	      4.24695      6.21421      4.01304        -0.004579     -0.051825     -0.032137
O	      4.24641      4.14722      6.22270        -0.003633      0.002975     -0.008532
O	      6.51077      6.35227      6.16692        -0.029363      0.023536     -0.007312
O	      6.22489      4.16227      8.25291        -0.129834      0.080980     -0.007610
O	      8.61811      6.48511      8.19481         0.000503      0.012466     -0.027550
O	      2.19951      6.27541      6.08926         0.020310     -0.057464      0.133220
O	      4.30920      8.35673      6.30038         0.101187     -0.004667     -0.045368
O	      4.26126      6.26543      8.39074         0.001031     -0.092353     -0.014491
O	      6.51503      8.45525      8.31489         0.042008      0.014772     -0.058851
O	      6.52903      6.36802     10.27282         0.055901     -0.010022     -0.007991
O	      8.48796      8.38879     10.16773        -0.015863     -0.090545     -0.041139
