# total energy = -88.21967941 eV
 
CRYSTAL
PRIMVEC
0.000030 2.100391 -2.100482 
0.000061 2.100387 2.100479 
17.002703 0.000248 0.000029 
PRIMCOORD
16 1
Li	      4.60337      2.10066      2.09923         0.032366     -0.000111      0.000380
Li	      6.70717      2.10119     -0.00102         0.023387     -0.000853      0.001110
Li	      8.54645      2.10131      2.09965        -0.023311     -0.001019      0.000669
Li	     12.51046      2.10099      2.09966         0.000975      0.000013      0.000608
Mn	     16.86737      2.10050      2.09944        -0.004125      0.000265     -0.000426
Mn	      2.30859      2.10029     -0.00122         0.096197      0.000237     -0.000609
Ni	     10.61323      2.10117     -0.00077         0.152403     -0.000166     -0.000060
Ni	     14.47688      2.10067     -0.00089         0.069927      0.000405     -0.001441
O	     14.80027      2.10067      2.09955        -0.018792      0.000252     -0.000750
O	      0.05391      2.10026     -0.00108         0.026738      0.000132     -0.000319
O	     10.59462      2.10120      2.09972         0.002813     -0.000441      0.000233
O	     12.53692      2.10108     -0.00079        -0.051874      0.000299     -0.000096
O	      6.53578      2.10119      2.09940        -0.023639     -0.000589      0.000616
O	      8.78196      2.10132     -0.00083        -0.221914      0.000848     -0.001070
O	      2.00704      2.10026      2.09926         0.035178      0.000480      0.000779
O	      4.07666      2.10041     -0.00128        -0.096329      0.000250      0.000377
