# total energy = -93.08195768 eV
 
CRYSTAL
PRIMVEC
2.081395 4.165257 2.026932 
4.088900 -2.051585 -2.014926 
0.007820 4.179515 -4.090023 
PRIMCOORD
16 1
Li	      2.01914      2.12014     -0.04129        -0.032699     -0.021610      0.018550
Li	      4.06142      2.11941     -2.07312         0.038296     -0.046628      0.017826
Li	      0.03877      2.09910     -2.04654        -0.020616     -0.027471      0.053892
Li	      2.02794      4.12977     -1.96241        -0.049616     -0.023621      0.019498
Mn	      0.02342      4.15574     -4.07143        -0.284774      0.130717     -0.247087
Mn	      4.09226      4.18954     -0.05607         0.194444      0.081944      0.211323
Ni	      4.10404      6.20909     -1.99913         0.029380      0.196816     -0.069920
Ni	      4.11115      4.17500     -4.01327         0.008176      0.181235     -0.084651
O	      4.04554      4.17643     -1.95198         0.044942     -0.179538      0.032139
O	      4.10109      2.17412     -4.16415         0.171246     -0.306900     -0.117482
O	      4.23808      2.14656     -0.00120         0.159690      0.008785     -0.018284
O	      3.95389     -0.08806     -1.98615         0.120570     -0.237906     -0.108848
O	      2.19363      4.13508      0.08310        -0.106338      0.031455      0.185227
O	      2.07151      1.89528     -2.02969        -0.086583     -0.087818      0.161796
O	      2.04954      6.42264     -2.05258        -0.051134      0.176570      0.024307
O	      1.97968      4.15358     -4.16591        -0.134982      0.123969     -0.078288
