# total energy = -219.94025611 eV
 
CRYSTAL
PRIMVEC
0.018787 6.239875 6.293736 
6.353537 0.051905 6.260005 
4.273612 4.175398 -0.003029 
PRIMCOORD
36 1
Li	      0.14991      6.18581      6.25331         0.044689      0.039212     -0.086811
Li	      8.54883      8.38965     12.50557         0.015765      0.050048     -0.090292
Li	      2.13255      6.25646      8.27888         0.049044     -0.046309     -0.047361
Li	      8.57262     10.40723     10.51171         0.096472     -0.019294      0.005048
Li	      6.45425      4.21856      6.26126        -0.033799     -0.065388     -0.001158
Li	      6.42538      4.37177     10.45701        -0.035336      0.178273      0.045801
Li	      8.37605      6.30988     10.56103        -0.029026      0.128847     -0.008338
Li	      2.06791      4.27522      6.24051        -0.019163      0.008647      0.023007
Li	      6.34819      6.28208      8.46448        -0.006761     -0.022878      0.150908
Sc	      4.14798      6.30330      6.21533        -0.025189      0.046296      0.002526
V	      6.37853      2.16922      8.29636        -0.098260      0.031429      0.070712
Cr	      4.21664      4.23702      8.38024        -0.106108      0.083717      0.127658
Fe	      4.36600      8.33003      8.28269         0.065351     -0.006672      0.154863
Fe	      6.47097      8.32001     10.44341         0.007069     -0.004676      0.071864
Fe	      4.24596      4.15883      4.16825         0.253870     -0.080095      0.143899
Fe	      8.37316      6.19627      6.28411         0.181711      0.165809     -0.062421
Cu	      8.48082      4.22560      8.35984        -0.046072      0.111599     -0.045190
Cu	      6.39124      6.23543      4.16977        -0.000485     -0.222694      0.068086
O	      2.22834      4.07545      4.07152        -0.150230     -0.078577     -0.004506
O	      2.06715      2.06198      2.21403         0.046489      0.010210      0.015693
O	      4.32459      4.16917      2.17310         0.015725      0.061657     -0.072520
O	      4.45462      2.12284      4.19011        -0.286230     -0.017657      0.002118
O	      6.30247      4.02216      4.24075        -0.049524      0.626484      0.000549
O	      6.36805      2.10978      6.49598        -0.087214     -0.009128     -0.032928
O	      8.46814      4.30339      6.40634         0.001186     -0.235278      0.028761
O	      4.17783      6.14544      4.04442        -0.059310      0.038133     -0.029185
O	      4.24454      4.13632      6.28198        -0.015677     -0.025582     -0.018828
O	      6.42015      6.26324      6.10840        -0.099402      0.022181     -0.018084
O	      6.22613      4.09321      8.46105         0.012008     -0.020725     -0.083352
O	      8.59868      6.38666      8.28535        -0.006378     -0.054165      0.028479
O	      2.21499      6.27304      6.25289        -0.004433     -0.017407      0.029776
O	      4.27339      8.35395      6.38333         0.037604     -0.010991     -0.148272
O	      4.30063      6.29870      8.33037        -0.048398     -0.038323     -0.145749
O	      6.40310      8.35405      8.39517         0.057135     -0.013166     -0.050283
O	      6.40506      6.49680     10.49168        -0.051083     -0.613424      0.018360
O	      8.35505      8.43100     10.35836         0.373959     -0.000112     -0.042832
