# total energy = -221.24684808 eV
 
CRYSTAL
PRIMVEC
0.029960 6.073939 6.381700 
6.353205 0.013517 6.398945 
4.254535 4.081291 -0.010621 
PRIMCOORD
36 1
Li	      6.37985      0.06372      6.39085        -0.016673     -0.001328     -0.001945
Li	      6.35438      4.07217      2.14495        -0.014165     -0.008342      0.024423
Li	      4.20318      0.05498      4.26968        -0.004292     -0.033024     -0.007420
Li	      6.25697      2.04631      4.31327        -0.048374     -0.049894      0.082883
Li	      4.26080      6.09139      2.12275        -0.031692      0.001827      0.003258
Li	      4.27237      2.02814      6.31402         0.034316     -0.051472     -0.039210
Li	      2.16347      6.10457      4.27963        -0.041408      0.004856      0.013814
Li	      4.25984      6.09269      6.40539        -0.006979      0.009113      0.000599
Li	      6.35676      6.12664      8.48297         0.004140     -0.019534     -0.001384
Sc	      8.53799      4.21400      8.51137         0.015265      0.098962     -0.035193
V	     10.51212      8.18502     10.66748         0.033487      0.180514     -0.055750
Cr	      2.14106      4.05879      6.35624         0.014645      0.041677     -0.002994
Fe	      2.01025      1.90824      0.07082         0.081941      0.111276     -0.044860
Fe	      4.32974      8.02834      8.63148         0.055205     -0.025563     -0.119232
Fe	      6.37243      4.10951      6.25066        -0.049036     -0.075612      0.132033
Fe	      4.19016      4.07924      8.46165         0.000404      0.038808      0.102550
Ni	      6.41177      6.07163      4.24088         0.082474      0.007936     -0.081364
Ni	      4.29218      4.11247      4.24346        -0.039762      0.019558      0.019894
O	      2.25385      2.03243      2.06271        -0.061515     -0.001725      0.016998
O	      4.21168      4.00058      2.18403         0.038320      0.068044     -0.117381
O	      4.23759      2.05359      4.18339         0.093577     -0.091755      0.091956
O	      6.31831      4.07367      4.32675         0.099144     -0.168976     -0.128954
O	      6.43613      2.10465      6.38082        -0.134466     -0.040523      0.030957
O	      8.37393      3.99744      6.45428         0.110515      0.039748     -0.004072
O	      2.08506      4.05563      4.29379        -0.042818      0.123481      0.035547
O	      4.35346      6.25573      4.22784        -0.127141      0.113030      0.010727
O	      4.22667      4.07570      6.42122         0.001008     -0.000258     -0.029713
O	      6.39810      6.09083      6.33074        -0.003153      0.103321      0.069513
O	      6.35142      4.07327      8.69345        -0.013805      0.014033      0.007937
O	      8.51568      6.22344      8.54534        -0.012790     -0.137152      0.025761
O	      2.13128      6.08464      6.34427         0.040085     -0.181947     -0.012375
O	      4.32401      8.12027      6.23778        -0.019202     -0.010541      0.023621
O	      4.27919      6.04451      8.54701         0.003828      0.039880     -0.030508
O	      6.38542      8.12087      8.36584        -0.024630     -0.005455     -0.008707
O	      6.41043      5.87112     10.66675        -0.014143     -0.123529      0.017178
O	      8.69386      8.12268     10.67875        -0.002307      0.010565      0.011411
