# total energy = -227.85397387 eV
 
CRYSTAL
PRIMVEC
0.053579 6.165966 6.320749 
6.393826 0.025137 6.349903 
4.264493 4.132205 0.014323 
PRIMCOORD
36 1
Li	     10.56495      4.21949      6.40675        -0.070186      0.021697     -0.020743
Li	      8.50799      2.12640      6.38654         0.000062      0.012386     -0.002690
Li	      6.32817      2.08293      4.30336        -0.000509     -0.027839     -0.004714
Li	      8.52990      4.16039      8.45001         0.003605      0.009838     -0.025486
Li	      4.24052      4.07912      4.28640        -0.028208     -0.006760     -0.000480
Li	      4.35642      2.10612      6.35215         0.026013     -0.037704      0.047037
Li	      0.08199      4.11090      4.25179         0.001495      0.053401      0.054674
Li	      2.19811      4.09909      6.31277        -0.002901      0.032183     -0.002732
Li	      4.31983      4.09897      8.36866         0.001905     -0.040494     -0.000350
Sc	      2.15927      6.10662      4.24775        -0.065637      0.095201      0.021646
V	      8.62508     10.20237     10.63106         0.053724     -0.185272      0.143986
Cr	      2.15884      2.11706      4.23041        -0.063472      0.118751     -0.028990
Fe	      6.38921     10.26422      8.39834        -0.022535      0.000689     -0.037020
Fe	      4.25101      2.14207      2.04723         0.045867      0.078467     -0.000667
Fe	      6.38244      4.02806      6.38809         0.127052     -0.028628     -0.090523
Fe	      4.30348      6.17498      6.32613        -0.095667      0.106930     -0.089373
Fe	      6.53667      6.18168      8.42276        -0.151128      0.143825      0.011697
Co	      6.37671      2.10813      8.44177         0.032590     -0.052172     -0.007749
O	      2.18686      2.00514      2.22331         0.144981      0.067314      0.042286
O	      4.36639      4.13183      2.12915        -0.049492      0.134860      0.052785
O	      4.17146      1.92677      4.13001         0.013778      0.053534      0.064652
O	      6.52650      4.19716      4.21089        -0.062483     -0.043388      0.037711
O	      6.39504      2.11606      6.44324        -0.034051     -0.075622      0.053142
O	      8.46698      4.16419      6.18918        -0.018339      0.046839      0.068936
O	      2.17106      4.10679      4.23696         0.029249     -0.175575     -0.005641
O	      4.32434      6.22561      4.23372         0.083340     -0.005955     -0.103863
O	      4.39579      4.21517      6.30950        -0.000304     -0.148070     -0.012816
O	      6.37357      6.16705      6.32848         0.011426      0.017946     -0.036792
O	      6.45194      4.19498      8.37289        -0.031243     -0.120756      0.069583
O	      8.45929      6.22600      8.52200         0.018810      0.016469      0.001081
O	      2.26857      6.17337      6.36991         0.029307      0.007999     -0.019701
O	      4.27888      8.16298      6.44101         0.022532      0.011169     -0.125797
O	      4.31815      6.20913      8.45733         0.069331     -0.076857     -0.022004
O	      6.34855      8.25714      8.46098        -0.008523     -0.054100      0.004802
O	      6.37590      6.20256     10.48160         0.008345      0.014794      0.044193
O	      8.56782      8.38988     10.54507        -0.018736      0.034901     -0.080079
