# total energy = -225.41707133 eV
 
CRYSTAL
PRIMVEC
-0.016880 6.234646 6.474027 
6.259351 0.009104 6.447340 
4.175652 4.142070 0.003074 
PRIMCOORD
36 1
Li	      8.34219      8.22918     12.82057        -0.018219      0.056385     -0.010101
Li	      2.12263      6.20565      8.55956         0.008502     -0.003597     -0.051917
Li	      4.20649      6.18325     10.70915        -0.029689      0.013176     -0.078008
Li	      4.19594      2.10937      6.50755        -0.011629     -0.034181      0.063985
Li	      6.20756      4.14777      6.45830         0.058549     -0.014449      0.026348
Li	     10.29681      8.34742     10.77268        -0.004885      0.001399      0.005867
Li	      8.29530      6.34961     10.78003        -0.007448     -0.015880      0.013759
Li	      4.12369      6.24481      6.47523        -0.007309     -0.011171     -0.014745
Li	      6.22463      6.24287      8.69678         0.016777     -0.012824      0.052403
Sc	      2.06963      4.16113      6.41618        -0.017822     -0.004029      0.048623
V	      8.27153      4.22012      8.53867        -0.016639      0.021416     -0.072510
Cr	      4.18524      6.21221      2.17507         0.039851     -0.030117     -0.043775
Fe	      6.31592      6.32859     12.77966        -0.178689     -0.027678      0.190707
Fe	      4.17382      8.17602      8.59074         0.031668      0.094003     -0.018903
Fe	      6.29268      6.10957      4.39846         0.018101      0.018727     -0.173091
Fe	      4.22451      4.14903      4.40308         0.028479     -0.023206     -0.054025
Fe	      8.32751      8.38313      8.68914        -0.050709     -0.013992     -0.183096
Cu	      6.28856      8.31969     10.79561        -0.001373      0.034814      0.040071
O	      2.08791      2.16483      2.26961         0.002771     -0.052891      0.048911
O	      4.06599      4.14880      2.23177         0.063838      0.002139      0.005381
O	      4.18110      2.10765      4.17578        -0.025621     -0.018253     -0.019079
O	      6.20595      4.10632      4.31038         0.079105      0.006795     -0.044618
O	      6.26214      2.02054      6.64853         0.001612      0.084711      0.165707
O	      8.37676      4.15245      6.76704         0.057252      0.003435      0.048607
O	      2.14852      4.10040      4.20444         0.007201     -0.014275     -0.001506
O	      4.26561      6.13566      4.21007        -0.042452      0.054814      0.023733
O	      4.14584      4.15871      6.42832         0.017331      0.001072      0.054904
O	      6.27817      6.23684      6.28525        -0.004319     -0.005177      0.134596
O	      6.28614      4.10866      8.64903        -0.090543      0.001317      0.047221
O	      8.41769      6.20190      8.64993        -0.025121      0.099942      0.045177
O	      1.99769      6.22722      6.42680         0.124935     -0.017010      0.007529
O	      4.13786      8.40104      6.58936        -0.036367     -0.029852     -0.051349
O	      4.15727      6.23706      8.57488         0.017640     -0.064180      0.008699
O	      6.24943      8.27804      8.48675        -0.015484      0.006989     -0.159087
O	      6.19515      6.34860     10.88039        -0.017163     -0.102090     -0.199310
O	      8.28264      8.34175     10.60041         0.027871     -0.006281      0.142894
