# total energy = -225.46530474 eV
 
CRYSTAL
PRIMVEC
-0.007245 6.297262 6.267800 
6.322467 -0.009133 6.269750 
4.211803 4.196261 -0.002888 
PRIMCOORD
36 1
Li	      4.22458     10.37811      6.29690        -0.027566     -0.009495      0.055991
Li	      2.21557      8.36170      6.30487         0.036936      0.001921      0.019133
Li	      6.36460      8.34046     10.39911         0.031466     -0.041433     -0.006022
Li	      6.32952      2.17366      8.36586        -0.014260      0.101062     -0.004847
Li	      8.36826      4.17746      8.31595        -0.040575      0.008806     -0.008686
Li	      4.22616      8.36758      4.24497        -0.013639      0.025168      0.042521
Li	      6.20869      8.42086      6.26620        -0.029876      0.013647     -0.029210
Li	      4.15901      6.40959      6.26442        -0.061038      0.058386     -0.035656
Li	      4.24551      4.15787      8.32969         0.048447      0.007510     -0.051980
Sc	      8.46811     10.33387     10.50317         0.069374     -0.140536      0.062508
V	      4.34125      2.10367      6.32868         0.024134      0.006179      0.074080
Cr	      4.20945      8.39872      8.26650        -0.002532      0.027992      0.027307
Fe	      2.08552      6.23768      8.19259         0.058215      0.067447      0.013477
Fe	      2.01408      2.18856      4.16133        -0.015180      0.052173      0.097181
Fe	      4.18700      4.23579      4.19187        -0.039008      0.019269     -0.030368
Fe	      8.38545      6.38183     10.54961         0.074183     -0.149276     -0.129099
Fe	      6.35215      6.20589      8.32156        -0.127831      0.182376     -0.048182
Ni	      6.31305      4.19224      6.31889         0.049760     -0.068677     -0.051176
O	      2.16641      2.00131      2.17782         0.007071      0.069966     -0.115006
O	      4.32419      4.10727      2.16768        -0.144364      0.045668     -0.015747
O	      4.12410      2.10501      4.22863         0.141444     -0.003632     -0.078566
O	      6.30821      4.28008      4.16695         0.006051     -0.109369     -0.107671
O	      6.11832      2.10449      6.28804         0.081204     -0.120994     -0.033767
O	      8.39489      4.29758      6.25721         0.143770      0.007912      0.023956
O	      2.18789      4.20060      4.15225        -0.127741      0.060165     -0.016385
O	      4.20754      6.23113      4.18077        -0.027445      0.153255     -0.008147
O	      4.25399      4.08201      6.17621        -0.124794     -0.005443      0.080125
O	      6.48782      6.28000      6.23764        -0.107589      0.138347     -0.026718
O	      6.29184      4.30356      8.31626         0.017311     -0.201937      0.118001
O	      8.35096      6.32811      8.31417         0.098450     -0.015548      0.031683
O	      2.08384      6.31144      6.23641        -0.002503     -0.038226      0.063583
O	      4.18638      8.40047      6.36163         0.043221     -0.031591     -0.042183
O	      4.20264      6.35949      8.37853        -0.009702     -0.055684     -0.031208
O	      6.22175      8.43098      8.34142         0.065194     -0.186242      0.072139
O	      6.35654      6.29251     10.34897        -0.081716      0.009641      0.113621
O	      8.39356      8.33105     10.47598         0.001128      0.121193     -0.024684
