# total energy = -228.69830884 eV
 
CRYSTAL
PRIMVEC
0.003598 6.207328 6.613744 
6.151756 0.009377 6.606715 
4.079884 4.113588 0.025155 
PRIMCOORD
36 1
Li	      2.07031      8.24912      6.63449         0.006258     -0.016533      0.047996
Li	      6.13818     10.28986      8.85977        -0.000648      0.003132     -0.022582
Li	      2.02883      4.15719      2.42339         0.019033     -0.003353      0.042269
Li	      2.09298      2.14891      4.48856        -0.026048      0.060629     -0.005838
Li	      4.04525      4.12148      4.54100        -0.003305     -0.005588      0.066215
Li	      0.06147      4.12727      4.39296         0.031856     -0.000783      0.025065
Li	      2.08635      4.08535      6.56560        -0.026587      0.019188      0.005454
Li	      4.08777      4.14404      8.72430        -0.006078      0.007974     -0.052703
Li	      6.19252      6.12510      8.72788         0.020121     -0.000061     -0.035514
Sc	      0.08173      2.09514      2.29294         0.028129     -0.051684     -0.111937
Mn	      2.04512      6.11122      4.40620        -0.058867     -0.030559      0.044224
V	      0.02314      6.18675      6.60683        -0.075725      0.018404      0.205641
V	      4.12789      8.27167      8.78210        -0.134754     -0.048509     -0.164361
V	      8.14502     10.25674     10.93748         0.136384      0.047340      0.049902
Cr	      6.14131      4.14619      6.64154        -0.049705      0.037070      0.109266
Co	      4.07333      6.20082      6.61376        -0.044310     -0.060822     -0.110298
Cu	      6.15653      8.27131     10.94000        -0.019226      0.011458      0.040922
Cu	      8.11210      6.25920      6.68652        -0.023605     -0.009368      0.077852
O	      2.17511      2.05312      2.28312        -0.070825     -0.015039      0.064408
O	      4.09322      4.06804      2.09460        -0.008037      0.040471     -0.004420
O	      4.16397      1.89567      4.23504        -0.092677     -0.053516     -0.117816
O	      6.22030      4.07362      4.55103        -0.143570     -0.038155     -0.053246
O	      6.06576      2.06312      6.75045         0.126941      0.147646      0.156219
O	      8.20474      4.21144      6.37499        -0.095213     -0.128062     -0.065166
O	      2.02884      4.27936      4.45912        -0.003092      0.007008     -0.019013
O	      3.95096      6.22055      4.45039         0.103981      0.020969      0.357138
O	      4.15696      4.11838      6.62340         0.030145      0.318852     -0.028714
O	      6.15898      6.12761      6.58897        -0.191521      0.041091     -0.072722
O	      6.20421      4.10556      8.63386         0.025596      0.025694     -0.018671
O	      8.20922      6.21860      9.13035        -0.013768      0.011492      0.104565
O	      1.97120      6.25349      6.39252         0.216017      0.036900     -0.034649
O	      4.02657      8.31263      6.77652         0.043011     -0.267454     -0.037408
O	      4.06290      6.24085      8.92653        -0.002092      0.011087     -0.230743
O	      5.93487      8.26520      8.74026         0.130795     -0.017307     -0.075860
O	      6.17647      6.23358     11.11507         0.062612     -0.038842     -0.200258
O	      8.15584      8.38054     11.01284         0.108773     -0.080770      0.064783
