# total energy = -93.11201707 eV
 
CRYSTAL
PRIMVEC
2.102313 4.207119 2.047303 
4.129994 -2.072204 -2.035177 
0.007899 4.221521 -4.131129 
PRIMCOORD
16 1
Li	      2.05993      2.16297     -0.04213        -0.002661      0.014912     -0.035107
Li	      4.14347      2.16223     -2.11501        -0.037642      0.070430     -0.011923
Li	      0.03955      2.14150     -2.08789         0.036670      0.026450     -0.017974
Li	      2.06891      4.21319     -2.00205         0.032555     -0.021191      0.032379
Mn	      0.01600      0.01817     -0.02255         0.317967     -0.144194      0.217684
Mn	      4.17492      4.27418     -0.05721        -0.188872     -0.019096     -0.261225
Ni	      2.08463      2.12740     -4.08681        -0.067826     -0.133891      0.054590
Ni	      4.19420      4.25935     -4.09435        -0.042652     -0.077502      0.161687
O	      4.12727      4.26080     -1.99141        -0.063412     -0.060015      0.219732
O	      4.18394      2.21804     -4.24827         0.025005      0.044173     -0.035115
O	      4.32369      2.18993     -0.00122        -0.073551      0.189760     -0.164362
O	      4.03376     -0.08984     -2.02628        -0.178550      0.173757     -0.085632
O	      2.23794      4.21861      0.08478         0.144495     -0.035956     -0.130004
O	      2.11336      1.93357     -2.07070         0.087051     -0.037595      0.084927
O	      2.09094      6.55239     -2.09404         0.086449     -0.047851     -0.047132
O	      2.01968      4.23749     -4.25006        -0.075026      0.057809      0.017475
