# total energy = -229.78376512 eV
 
CRYSTAL
PRIMVEC
0.005381 6.336527 6.400915 
6.131297 0.041099 6.364549 
4.110719 4.222867 0.004761 
PRIMCOORD
36 1
Li	      8.19586      8.44772     12.69822        -0.004587     -0.017019      0.000476
Li	      2.14418      6.30027      8.42752        -0.043177     -0.038178      0.041517
Li	      6.24912      8.44023     10.65530         0.030250     -0.014507     -0.012853
Li	      6.12897      6.39868      4.40904         0.024864      0.019552     -0.017940
Li	      6.11790      4.29583      6.42704        -0.025871      0.006969     -0.031842
Li	      8.19108      6.43621     10.66423        -0.032928     -0.020461      0.007936
Li	      6.17882      8.40013      6.43748        -0.015345      0.017828      0.051941
Li	      8.17422      8.53570      8.59359        -0.039688     -0.011344      0.036678
Li	      6.11686      6.35073      8.44900        -0.001532      0.042210     -0.012254
Sc	      0.15141      6.35937      6.37198         0.024277     -0.071661      0.081151
Mn	     10.21392      8.47236     10.63828        -0.011641     -0.043918      0.153078
V	      4.23529      8.38215      8.54528         0.322263      0.072403     -0.001826
V	      8.06913      4.25596      8.48515         0.500704      0.255270      0.048158
V	      4.25781      4.27473      4.29337         0.041545     -0.038039     -0.206851
Cr	      8.11791      6.36359      6.36297        -0.138531      0.088245     -0.118915
Co	      6.17576      2.18552      8.45336        -0.047030     -0.193723     -0.019335
Ni	      8.14941      4.19847      4.25507        -0.105232      0.089560      0.025925
Ni	      4.10737      6.32683      6.43234         0.027180     -0.014071      0.046347
O	      2.18460      2.34827      2.08919        -0.230004     -0.207592     -0.002159
O	      4.04729      4.17863      2.21182         0.049564      0.065460      0.010703
O	      4.05377      2.23588      4.23611         0.001790      0.002124      0.077783
O	      6.02092      4.24706      4.20428        -0.069537      0.063847      0.016802
O	      6.06269      2.10725      6.39956        -0.027943      0.083389     -0.006836
O	      8.17142      4.34168      6.40696        -0.060907     -0.041367      0.043944
O	      1.99377      4.25566      4.08146        -0.045895     -0.023683     -0.026885
O	      4.09921      6.28518      4.23223         0.004033      0.141722     -0.092549
O	      4.04841      4.19163      6.18601         0.011567     -0.080152      0.118870
O	      6.14952      6.36101      6.38338         0.157546      0.010862     -0.025367
O	      6.18068      4.24124      8.49456        -0.275119     -0.028354     -0.089280
O	      8.18924      6.18445      8.36729         0.134007      0.064389      0.053243
O	      2.09859      6.34529      6.43074        -0.065240     -0.009238     -0.009198
O	      4.13665      8.43180      6.55838        -0.035799      0.052433     -0.024516
O	      4.05608      6.48999      8.58505        -0.012660     -0.074624     -0.031997
O	      6.00431      8.47885      8.60637        -0.108804      0.012748     -0.030411
O	      6.09795      6.24083     10.70421         0.106732     -0.014630     -0.069110
O	      8.32249      8.50924     10.62531        -0.038852     -0.146451      0.015571
