# total energy = -231.70796678 eV
 
CRYSTAL
PRIMVEC
0.026232 6.191546 6.335960 
6.227028 0.002023 6.360521 
4.169905 4.163273 -0.017454 
PRIMCOORD
36 1
Li	      6.22785      6.21581     12.58201        -0.003374      0.008473     -0.076222
Li	      4.12951      2.04132      2.18635        -0.026984     -0.015196     -0.037472
Li	      4.13776      0.13957      4.24241        -0.024498      0.001556     -0.010566
Li	      4.23586      6.23081      2.33424         0.021096      0.008802     -0.075814
Li	      6.14778      6.20056      4.12640         0.119632     -0.026257     -0.103000
Li	      4.20462      2.03635      6.23870         0.018030      0.003331      0.012931
Li	      4.17752      8.03829      4.25712        -0.003877      0.003318     -0.010529
Li	      2.26318      6.19712      4.23411        -0.063436     -0.005239      0.026314
Li	      4.15744      6.22593      6.19225         0.004094     -0.013383      0.091573
Sc	      1.98910      4.14156      6.23661         0.024201      0.062119      0.097970
Mn	      6.20107      4.18241      6.29310        -0.005986     -0.027670      0.109511
V	      2.25516      4.13524      2.12541        -0.340210     -0.058787     -0.038128
V	      8.37170      8.24034      8.55687         0.104187      0.018928      0.074287
V	      6.22456      6.18798      8.63554        -0.041329     -0.088156     -0.052426
Cr	      8.36766      8.25934     12.61112         0.014705      0.018704      0.065956
Co	      2.11546      0.08124      2.10570        -0.021034     -0.090725     -0.116840
Co	      6.21190      2.13535      4.19226         0.062982     -0.055336     -0.005578
Cu	      4.19420      4.16059      4.21587        -0.071573     -0.041119     -0.014104
O	      4.21563      6.09065      4.23952         0.010960     -0.053129      0.025531
O	      2.07518      2.19555      1.95162        -0.002268      0.101416      0.038682
O	      3.99131      4.24864      1.92574         0.320698      0.025562     -0.117129
O	      4.29869      2.19069      4.21263         0.003742      0.050199     -0.013689
O	      6.22360      4.07267      4.10451         0.137792     -0.064073      0.003819
O	      6.30369      2.20457      6.11222        -0.024627      0.060083     -0.045867
O	      8.19128      4.10908      6.44318         0.005117      0.022108     -0.089809
O	      2.13406      4.07941      4.16070        -0.032906     -0.006458      0.049770
O	      4.24602      4.08663      6.61877        -0.039855     -0.005295     -0.074886
O	      6.24513      6.17407      6.58676         0.001831     -0.021142     -0.084499
O	      6.31570      4.22456      8.58153         0.005692      0.027697      0.022661
O	      8.22133      6.18101      8.52685         0.048999      0.005611      0.045541
O	      2.07964      6.22637      6.40889         0.017662      0.008477     -0.015388
O	      4.15782      8.29320      6.25675         0.025308      0.007675     -0.039072
O	      4.24089      6.07862      8.53737        -0.068521      0.123267      0.008051
O	      6.28090      8.21650      8.49431        -0.082169     -0.082907      0.063565
O	      6.21122      6.36479     10.44772        -0.012700      0.078492      0.171271
O	      8.23434      8.26111     10.55960        -0.081382      0.019055      0.113585
