# total energy = -226.77244630 eV
 
CRYSTAL
PRIMVEC
0.066663 6.343384 6.147412 
6.401908 0.049050 6.165462 
4.300392 4.273688 0.000508 
PRIMCOORD
36 1
Li	      2.12963      2.13510      0.08451        -0.045605      0.016821     -0.064928
Li	      2.38264      6.47701      8.18864        -0.082283      0.060356     -0.019965
Li	      6.46342      2.19588      8.18756         0.035189     -0.010404     -0.035790
Li	      2.20269      2.07921      4.01961         0.007674     -0.005195      0.028045
Li	      8.59212      6.43189      6.23135         0.003534      0.026504      0.040831
Li	      6.42577      4.31535      6.18789         0.033739      0.049707      0.035600
Li	      4.33940      6.33768      6.33121         0.022180     -0.033923     -0.065133
Li	      4.32834      4.36690      8.13925        -0.012493      0.092666      0.015579
Li	      6.37567      6.38546      8.20773        -0.028956     -0.023065      0.024404
Sc	      4.39138      4.31050      4.11650         0.053201      0.048981      0.043891
Mn	      6.53256      8.51683     10.17659         0.023011      0.005781      0.046098
V	      6.40531      0.10985      6.14674         0.010822     -0.067057     -0.007399
V	     10.65724      8.43622     10.20638         0.007083     -0.040786     -0.016422
V	      6.52724      8.34985      6.24216        -0.003562     -0.128838     -0.060658
Cr	      2.17377      4.24199      2.04114        -0.016807      0.009033     -0.056232
Cu	      8.58839      6.41366     10.19157        -0.005468     -0.002112      0.009063
Ni	      4.26857      8.41267      8.18677         0.035125      0.070040     -0.062856
Ni	      4.19571      0.07861      4.05900        -0.015703      0.005383      0.135802
O	      2.17363      2.24063      2.00984        -0.076282      0.084533      0.056481
O	      4.20851      4.27217      1.98424        -0.020853      0.057302      0.034818
O	      4.36591      2.18811      4.10008         0.116328      0.134861      0.117187
O	      6.42085      4.25411      4.18632        -0.129138      0.110941     -0.027053
O	      6.48718      2.02229      5.96324        -0.019760      0.038675      0.018859
O	      8.77852      4.32150      6.20042        -0.030830     -0.015333      0.070669
O	      2.12005      4.17251      4.14507        -0.079597     -0.153326     -0.016137
O	      4.30473      6.47510      4.15301         0.068557      0.024876     -0.028458
O	      4.13822      4.31275      6.16077         0.026792     -0.057533     -0.029325
O	      6.45112      6.59676      6.18982        -0.000401      0.010029      0.012746
O	      6.54664      4.27869      8.37245        -0.043277     -0.039071      0.015875
O	      8.60200      6.28706      8.28410         0.018184     -0.072135     -0.078363
O	      1.96355      6.20203      6.07804         0.026940     -0.028716      0.034569
O	      4.44238      8.58163      6.02876        -0.018490     -0.015607     -0.122560
O	      4.30399      6.41945      8.22546         0.071987     -0.107139     -0.066673
O	      6.40124      8.52977      8.20650         0.120213      0.028631      0.013532
O	      6.37250      6.30568     10.31625         0.029999     -0.106012      0.038263
O	      8.73179      8.57379     10.25661        -0.081053      0.031130     -0.034361
