# total energy = -226.85410270 eV
 
CRYSTAL
PRIMVEC
0.025356 6.073587 6.321812 
6.390398 -0.000086 6.346968 
4.266967 4.072309 -0.006602 
PRIMCOORD
36 1
Li	      0.16544      6.10663      6.28798         0.057883     -0.038722     -0.008349
Li	      2.11261      7.94561      6.31097         0.010248     -0.032841     -0.010711
Li	      2.15349      6.04941      8.38969         0.010181     -0.006556     -0.019944
Li	      8.51007      4.06618      4.24534        -0.015728     -0.011579      0.041337
Li	      2.16944      2.03107      4.22681        -0.007731      0.018382     -0.000843
Li	      4.27414      2.04362      6.34208        -0.016240     -0.005198      0.025446
Li	      2.18178      6.09376      4.29622         0.053025     -0.036986     -0.027573
Li	      4.15567      6.09606      6.30528        -0.040577      0.010295      0.004663
Li	      6.43722      6.14630      8.41562        -0.015264     -0.012708      0.009043
Sc	      6.31295      4.16485      6.28838        -0.081116      0.078482      0.059306
Mn	      2.19827      4.06345      6.33296         0.026654     -0.028819     -0.023254
V	      4.29831      7.96998      8.46972        -0.055840      0.104314     -0.128355
V	      8.58513      4.08566      8.34739        -0.024820     -0.014912      0.127651
V	     10.62653      8.19553     10.61080        -0.061514     -0.181242      0.004542
Cr	      0.06791      1.98655      2.06183         0.053670     -0.073492      0.011960
Cu	      4.29548      4.11173      4.22781        -0.053873      0.020185     -0.008171
Cu	      8.45982      8.10960      8.51095        -0.013317      0.057933     -0.027183
Ni	      6.42933      8.06907     10.59693         0.031160     -0.084357      0.031917
O	      2.17776      2.09877      2.08457        -0.039268     -0.049936     -0.027089
O	      4.14624      4.01420      2.00749         0.054385      0.003662     -0.079963
O	      4.30871      2.10941      4.09384        -0.113619      0.032835      0.101432
O	      6.29630      4.04659      4.27168         0.083248      0.100826     -0.028404
O	      6.42651      2.04465      6.38427        -0.033610      0.033409      0.026860
O	      8.43086      4.08762      6.54329        -0.023660      0.022878     -0.201866
O	      2.07702      4.05972      4.05582         0.006495      0.004521     -0.026112
O	      4.31010      6.17044      4.08480         0.015642      0.022755      0.006107
O	      4.22204      4.07969      6.55364        -0.069842     -0.018153     -0.028137
O	      6.44491      6.18539      6.34580         0.016447     -0.050272      0.030341
O	      6.54826      4.00879      8.52510         0.134164     -0.033614     -0.060116
O	      8.73596      6.04435      8.46016         0.084737      0.008523     -0.031146
O	      2.16634      5.93508      6.31258         0.012911      0.035192     -0.009466
O	      4.38027      8.08600      6.24695         0.043120     -0.002743      0.037377
O	      4.21462      6.21459      8.46459        -0.036595     -0.085619      0.050389
O	      6.21419      8.10835      8.51577        -0.075217      0.041512     -0.002909
O	      6.38314      5.91502     10.54696         0.005889      0.185037     -0.028473
O	      8.63201      8.11964     10.46168         0.077972     -0.012992      0.209693
