# total energy = -226.94664998 eV
 
CRYSTAL
PRIMVEC
0.006048 6.293737 6.311648 
6.318294 0.020645 6.297201 
4.215159 4.189158 0.010703 
PRIMCOORD
36 1
Li	     10.34229      4.25092      6.32137         0.050421     -0.006452      0.035128
Li	      8.38001      4.31189      4.42398         0.020152     -0.005825     -0.054407
Li	      8.51801      4.18415      8.22522         0.005121      0.033564      0.028751
Li	      6.44366      6.22536      4.26679         0.035409     -0.006209      0.021606
Li	      4.26457      4.11412      4.21995        -0.011719      0.028512      0.028978
Li	      8.44945      6.11190      6.17744        -0.030268      0.039614      0.021687
Li	      6.51795      4.18916      6.15205         0.028112      0.001503      0.047557
Li	      4.20261      8.41832      4.28353        -0.012293      0.038749      0.016927
Li	      8.42778      8.36822      8.41221        -0.012096     -0.042485     -0.035297
Sc	      6.35952      4.18661      2.23819        -0.057829      0.091800      0.055200
Mn	      6.29478      2.11249      8.34984        -0.009942      0.064849      0.143981
V	      8.42466      6.36466     10.48124         0.031000     -0.213332     -0.102450
V	      2.18158      4.19178      6.24418        -0.027291     -0.047445     -0.125139
V	      6.31801      6.10819      8.40438         0.074143     -0.091563     -0.051458
Cr	      4.20147      2.14147      2.15471        -0.050538      0.070146     -0.057788
Ni	      8.42117      2.24734      6.30782         0.098721     -0.117721      0.030148
Ni	      6.23629      2.11558      4.33652         0.067066     -0.003409      0.069657
Ni	      4.25747      6.30271      6.23860         0.049923     -0.015922     -0.151767
O	      2.15223      2.07961      2.10070         0.059764     -0.000773      0.130757
O	      4.28625      4.18793      2.10793         0.016191     -0.047045      0.021263
O	      4.23497      2.11835      4.10619        -0.095571     -0.013207      0.006871
O	      6.33335      4.13614      4.19514         0.029748      0.105261     -0.044299
O	      6.34859      2.13730      6.46254        -0.146884     -0.036227     -0.151155
O	      8.45090      4.19296      6.31229         0.016269      0.141855     -0.036134
O	      2.04058      4.39853      4.33835        -0.016825     -0.047488      0.014618
O	      4.07952      6.33174      4.04474         0.005317      0.009071      0.058881
O	      3.96799      4.25589      6.34506         0.058456     -0.092974     -0.010586
O	      6.29549      6.39931      6.38660         0.117016     -0.029931      0.046538
O	      6.25038      4.34231      8.39549        -0.018879      0.012342     -0.006310
O	      8.33439      6.31525      8.52059        -0.062710     -0.006147     -0.034771
O	      2.18026      6.24702      6.25166        -0.133989      0.026648      0.049062
O	      4.35211      8.37173      6.38663         0.029031      0.122825      0.056678
O	      4.30108      6.36996      8.34839         0.001980     -0.006524      0.089677
O	      6.25420      8.31231      8.35421        -0.021899     -0.003590      0.041168
O	      6.40812      6.34949     10.35082        -0.115096     -0.103634     -0.018969
O	      8.35568      8.20602     10.59283         0.029991      0.151163     -0.134605
