# total energy = -236.50840578 eV
 
CRYSTAL
PRIMVEC
0.004506 6.429999 6.269600 
6.459938 0.038808 6.235185 
4.324653 4.281914 0.008037 
PRIMCOORD
36 1
Li	      4.30055      4.29562      0.19108         0.018302      0.007508      0.060647
Li	      6.23043      4.32680      2.10126         0.024272      0.058417     -0.005868
Li	      4.26940      2.41131      2.10135        -0.044509      0.033411      0.039814
Li	      4.32875      6.23589      2.16676         0.031519      0.032259      0.029496
Li	      2.42906      4.28082      2.22258         0.022768     -0.031268     -0.037270
Li	      2.17307      2.27772      4.07616         0.025360     -0.048196     -0.027583
Li	      4.16687      4.28986      4.00186        -0.031640     -0.021123      0.041399
Li	      0.10597      4.24086      4.15233        -0.037858     -0.016691     -0.013524
Li	      2.19978      6.31712      4.16777         0.025370      0.017720     -0.004746
Sc	      6.49315      6.37705      8.40592        -0.001960     -0.026336     -0.041157
Mn	      6.46873      8.62491     10.32211        -0.007423      0.042734     -0.076399
Mn	      6.45127      4.31557      6.25421         0.102041     -0.018298      0.033477
Mn	      2.10964      4.34543      6.18467        -0.006874      0.012343     -0.101929
V	      2.23679      2.12578      0.11610        -0.018875      0.065854      0.368910
V	      4.28257      0.03841      4.13228         0.033825      0.123618      0.068658
V	      4.27162      6.43068      6.11111        -0.044511     -0.065571      0.046136
Fe	      4.44593      2.12175      6.26998        -0.099556     -0.011881     -0.093182
Co	      8.64730      8.55923      8.33912        -0.028839      0.089293     -0.026621
O	      4.33968      4.28972      2.11405         0.019101      0.055182     -0.001615
O	      2.14605      2.19099      1.88157         0.065509      0.024198     -0.190433
O	      4.30203      2.05804      4.29743         0.051987     -0.027230     -0.117707
O	      6.65946      4.32020      4.27740        -0.153166     -0.036018      0.106403
O	      6.48486      2.29413      6.23710         0.041180      0.094203      0.077047
O	      8.65858      4.34389      6.23639         0.009239     -0.041830     -0.014473
O	      2.09368      4.32422      4.31071        -0.082802      0.017154     -0.068859
O	      4.33488      6.42357      4.36551        -0.002113      0.054406      0.078904
O	      4.20206      4.31077      6.15280        -0.016620      0.030575      0.033522
O	      6.38882      6.36244      6.26333        -0.074269     -0.140229     -0.069072
O	      6.32386      4.31809      8.24067         0.061935     -0.014507     -0.177963
O	      8.58649      6.54002      8.21898        -0.016097     -0.097295      0.111806
O	      2.30575      6.55869      6.25256         0.143441      0.067195     -0.035268
O	      4.28694      8.39732      6.30976        -0.004466     -0.087317      0.042119
O	      4.36751      6.30345      8.25335        -0.008140     -0.031392     -0.048102
O	      6.59489      8.54727      8.19740        -0.127098     -0.096480      0.025968
O	      6.31968      6.48025     10.40478         0.177774      0.032123      0.047709
O	      8.64648      8.71772     10.65159        -0.046809     -0.046530     -0.060244
