# total energy = -239.45876213 eV
 
CRYSTAL
PRIMVEC
0.006365 6.468114 6.235133 
6.338670 0.007425 6.234510 
4.213826 4.299284 0.017456 
PRIMCOORD
36 1
Li	      2.11039      8.57730      6.26483        -0.002459     -0.029827      0.017450
Li	      4.20230      2.14040      2.15166         0.028559     -0.008207      0.029734
Li	      4.24440      6.45294     10.31357         0.011422      0.063140     -0.018328
Li	      4.26035      6.40272      2.13987         0.028080      0.037142      0.002101
Li	      2.07076      2.18060      4.12323        -0.001552     -0.022844      0.021918
Li	      4.19027      4.39839      4.16246        -0.002021      0.000167     -0.019235
Li	      8.45236      6.45659     10.31240         0.010612      0.020933      0.018883
Li	      8.36758      8.66476      8.34278        -0.006705      0.029728     -0.012698
Li	      6.30361      6.51075      8.35176        -0.063424      0.008597      0.017432
Sc	     10.41959      8.59570     10.32587         0.100536     -0.083175     -0.182646
Mn	      6.40077      8.59960     10.32527        -0.086683     -0.005561      0.006980
Mn	      6.35417      8.59479      6.27994        -0.029653     -0.047142     -0.037926
Mn	      4.17743      6.49340      6.27100         0.003823      0.025991      0.007866
V	      2.17543      4.24603      2.12946        -0.073363     -0.360848      0.215058
V	      4.24293      2.17414      6.23822         0.066668      0.124766     -0.389092
V	      6.36695      4.31159      6.21306        -0.082741     -0.084159      0.065501
Fe	      0.05539      6.41122      6.21114         0.013990      0.088601      0.118812
Fe	      2.12298      0.18285      2.19526        -0.100438     -0.277544     -0.058264
O	      2.09651      2.12278      2.12201         0.081861      0.500516     -0.080242
O	      4.21928      4.32511      1.99951         0.347560      0.026390      0.024018
O	      4.34774      2.13163      4.36018        -0.004916     -0.024633      0.126152
O	      6.34132      4.33271      4.19656         0.040544      0.001445      0.056019
O	      6.29371      2.19230      6.12387         0.026326     -0.128986     -0.013499
O	      8.49861      4.39849      6.29543        -0.160910     -0.015138     -0.017083
O	      2.06779      4.29948      4.08399        -0.023679      0.122966      0.015521
O	      4.16226      6.51458      4.36897        -0.014867     -0.043652     -0.030430
O	      4.28330      4.20593      6.26783         0.171981      0.044958      0.007536
O	      6.37491      6.34589      6.26115        -0.007458      0.204450     -0.012581
O	      6.46146      4.25278      8.23036        -0.282877     -0.009807      0.001078
O	      8.49532      6.35389      8.10353        -0.013612     -0.094720      0.219831
O	      2.07597      6.47616      6.35419         0.088798      0.056190     -0.043769
O	      4.21584      8.68615      6.21191        -0.090353     -0.095753      0.030092
O	      4.13809      6.50362      8.18499         0.066845     -0.031246     -0.036217
O	      6.31386      8.70990      8.41673         0.018386     -0.017077      0.048531
O	      6.33332      6.41031     10.48352         0.015682      0.003574     -0.125009
O	      8.38333      8.60239     10.34320        -0.073960      0.020762      0.026505
