# total energy = -239.49212492 eV
 
CRYSTAL
PRIMVEC
0.028279 6.585852 6.307433 
6.102895 0.041327 6.294417 
4.100178 4.413219 -0.003845 
PRIMCOORD
36 1
Li	      6.11143      0.24915      6.32724         0.025991      0.074578      0.085264
Li	      8.10277      2.32315      6.23454        -0.040476      0.029167      0.006483
Li	      1.98970      0.02690      2.05955        -0.011992     -0.037412      0.018882
Li	      6.10494      2.12851      4.32628         0.060712      0.055423      0.014399
Li	      8.18877      4.61414      8.34479         0.057066      0.001744      0.047544
Li	      8.25749      6.49575      6.38994        -0.029954      0.035749      0.071136
Li	      8.10254      6.63798     10.45997        -0.024662     -0.032746     -0.017475
Li	      6.11442      8.82093      6.29058         0.071478      0.007879     -0.015092
Li	      6.18333      6.63087      8.43413        -0.021374      0.041551      0.001336
Sc	      8.08599      8.70393      8.41617        -0.099007      0.211132     -0.037718
Mn	      4.09687      0.04139      4.23760        -0.107036     -0.124789     -0.154938
Mn	      6.14211      6.59308      4.17449        -0.070657     -0.016283      0.029312
Mn	      6.19833      4.38604      6.37028        -0.114125      0.010957     -0.060043
Mn	      6.17746      4.53102     10.50867         0.049226     -0.004016     -0.081152
V	      4.13344      8.84066      8.32095         0.246500     -0.637914     -0.251710
V	      4.08161      4.35874      4.13489         0.058206      0.224841     -0.165370
V	      3.94221      6.62258      6.28103         0.091589     -0.335248      0.404635
Co	      6.13371      2.26878      8.39847        -0.002510     -0.066096      0.032532
O	      2.07293      2.18240      2.24799        -0.330707     -0.085715     -0.108016
O	      4.09969      4.26272      2.16744        -0.020725      0.595868      0.182102
O	      4.07505      2.23780      4.12369        -0.139637      0.059086     -0.449730
O	      6.17401      4.43685      4.16319         0.127168     -0.143988      0.069886
O	      6.15377      2.43946      6.41993        -0.015028      0.032450     -0.095938
O	      8.09524      4.47111      6.26428         0.080651      0.016893     -0.053835
O	      2.08573      4.31865      4.26001        -0.196082      0.106200      0.051840
O	      4.09667      6.46581      4.21842         0.187629      0.097648     -0.060160
O	      4.18152      4.53173      6.25869        -0.014891     -0.040421      0.091392
O	      6.02546      6.42869      6.14243         0.057537      0.038737     -0.089826
O	      6.13918      4.50932      8.54064         0.039733     -0.006684     -0.002365
O	      8.23875      6.71585      8.40786         0.040705     -0.072793     -0.001084
O	      2.19261      6.55552      6.25668        -0.097116      0.007012     -0.067483
O	      4.11698      8.56444      6.21304        -0.025176      0.432805      0.430346
O	      4.10076      6.70359      8.27495         0.030829     -0.468009      0.042700
O	      6.08709      8.77899      8.31125         0.062358      0.025855      0.041486
O	      6.00067      6.66450     10.59378         0.041519      0.042046      0.037221
O	      8.28316      8.93179     10.46057         0.032259     -0.075509      0.053439
