# total energy = -238.27182139 eV
 
CRYSTAL
PRIMVEC
0.003149 6.270443 6.364480 
6.447654 0.007203 6.360497 
4.295293 4.174185 0.008869 
PRIMCOORD
36 1
Li	      0.05665      6.26104      6.37386         0.010806      0.008778     -0.038348
Li	      6.43871     10.40490      8.47132        -0.010728     -0.037931     -0.029306
Li	      4.18263      2.18093      2.16478        -0.070062     -0.025808      0.014770
Li	      2.27666      4.10481      2.18592         0.044674      0.060143      0.033581
Li	      6.41758      6.30406      4.31411        -0.013125      0.036472      0.072754
Li	      6.42409      4.23446      6.31986         0.005161     -0.038851      0.018355
Li	      0.05584      4.17105      4.27995         0.017542      0.007434     -0.008064
Li	      6.38948      8.33240      6.36869        -0.009538      0.046222      0.001065
Li	      4.39994      6.27015      6.29253         0.043116      0.001477     -0.009773
Sc	      0.12576      2.12095      2.09600        -0.012544      0.041793     -0.046246
Mn	      8.58355      6.19778      6.35828         0.025029     -0.013278      0.019256
Mn	      2.14059      6.28221      4.31409         0.042421      0.064524     -0.027143
Mn	      4.27357      4.21734      8.42863        -0.022847     -0.084475     -0.010876
Mn	      6.37779      6.28686      8.45055         0.002244     -0.042672     -0.028714
V	      2.39113      8.33632      6.38632        -0.125114      0.047867     -0.085787
V	      8.44703      4.17450      4.22100        -0.033478     -0.009377      0.072053
V	      4.26032      4.18126      4.26792         0.107739     -0.044398      0.080237
Cu	      6.36775      2.09064      4.25298        -0.026979     -0.017925      0.004161
O	      2.12606      2.13477      1.95369         0.027872     -0.009673      0.052248
O	      4.32494      4.20459      2.35644         0.003706      0.014748     -0.032697
O	      4.11304      2.11962      4.21233        -0.147738      0.015146     -0.037250
O	      6.45020      4.05284      4.24881        -0.052514      0.089413     -0.006982
O	      6.50745      2.04592      6.38292         0.005327     -0.000944      0.073140
O	      8.61135      4.06468      6.21848        -0.030906     -0.008807      0.028369
O	      2.28284      4.33310      4.25956        -0.030251     -0.016928      0.001193
O	      4.39174      6.17449      4.21020         0.049756      0.041557      0.017441
O	      4.34336      4.17156      6.14174        -0.006882      0.045300      0.011942
O	      6.47052      6.28614      6.56519        -0.052443     -0.004847     -0.017118
O	      6.25985      4.25211      8.49177        -0.007023      0.013447     -0.012606
O	      8.65539      6.37115      8.61685         0.008616      0.047975      0.031914
O	      2.11573      6.38144      6.24055        -0.003900     -0.075424      0.027154
O	      4.15682      8.36522      6.41581         0.168202      0.012488     -0.008865
O	      4.21584      6.14216      8.58520        -0.030670      0.021753     -0.083327
O	      6.62550      8.27532      8.50529         0.011436      0.023785     -0.074889
O	      6.27519      6.35805     10.44630         0.001163     -0.109342     -0.017138
O	      8.69953      8.31364     10.73428         0.111933     -0.099640      0.015497
