# total energy = -93.04551689 eV
 
CRYSTAL
PRIMVEC
2.112773 4.228050 2.057489 
4.150542 -2.082513 -2.045302 
0.007938 4.242523 -4.151682 
PRIMCOORD
16 1
Li	      2.08048      2.18454     -0.04255         0.013480      0.028733     -0.059008
Li	      4.18480      2.18380     -2.13610        -0.071680      0.122005     -0.027135
Li	      0.03994      2.16287     -2.10872         0.060820      0.052448     -0.052054
Li	      2.08954      4.25522     -2.02202         0.067325     -0.018998      0.033245
Mn	      0.01619      0.03946     -0.04343         0.612822     -0.287915      0.450154
Mn	      2.10380      0.08876     -2.11526        -0.355622     -0.059965     -0.479058
Ni	      2.11594      2.16966     -4.11734        -0.099073     -0.279368      0.107897
Ni	      4.23604      4.30184     -4.13519        -0.062644     -0.189873      0.267293
O	      4.16844      4.30330     -2.01128        -0.107018     -0.013739      0.302289
O	      4.22567      2.24017     -4.29065        -0.048662      0.202357      0.007704
O	      4.36682      2.21177     -0.00124        -0.205105      0.261838     -0.230433
O	      4.07400     -0.09074     -2.04649        -0.316532      0.390132     -0.068798
O	      2.26027      4.26069      0.08562         0.234924     -0.063891     -0.285512
O	      2.13444      1.95285     -2.09135         0.169022     -0.010254      0.050243
O	      2.11180      6.61775     -2.11493         0.141511     -0.158271     -0.088872
O	      2.03983      4.27976     -4.29246        -0.033568      0.024760      0.072047
