# total energy = -241.54068945 eV
 
CRYSTAL
PRIMVEC
-0.010306 6.320898 6.088545 
6.619187 -0.046588 6.125548 
4.392874 4.218305 -0.012657 
PRIMCOORD
36 1
Li	      4.53790      8.38072      8.07609        -0.003443      0.037281     -0.000794
Li	      6.52849      8.31339     10.10576        -0.009425     -0.018486      0.003356
Li	      4.41380      6.24897      2.02666        -0.011396      0.060342      0.025142
Li	      2.32020      4.16228      2.04810        -0.026993     -0.002698      0.028651
Li	      4.34900      4.23094      4.05025         0.009525      0.041223     -0.021943
Li	      6.55938      8.34140      6.14943        -0.033173      0.023026     -0.024664
Li	      4.40296      6.31151      6.15199        -0.050080     -0.004606     -0.042302
Li	      8.63708      8.43888      8.11872         0.040339     -0.026798      0.023432
Li	      6.48382      6.50266      8.09349         0.039805     -0.102660     -0.007477
Sc	      6.57449     10.38073      8.14536        -0.086064     -0.031129     -0.128619
Mn	      0.03867      6.31736      6.11580         0.014935     -0.013149     -0.070425
Mn	      2.24531      2.12446      0.07226         0.057438      0.016364     -0.055216
Mn	      4.39499      6.28077     10.11386         0.064174     -0.172222      0.146556
Mn	      2.18523      2.15598      4.04072        -0.161292      0.282070     -0.026278
V	      8.78728      6.35073      6.20936         0.010457     -0.119408      0.299078
V	      6.52615      4.19303      6.21958        -0.007062     -0.009131     -0.242855
V	      6.63695      4.17973     10.05499         0.177981     -0.196476      0.293322
Fe	      2.28101      6.26009      3.99200        -0.033465     -0.020694     -0.068405
O	      2.17166      2.09043      2.07383         0.051033     -0.066175      0.115720
O	      4.44985      4.18585      1.90960         0.056281      0.005742      0.036613
O	      4.39763      1.92651      4.25961         0.012068      0.020315     -0.084208
O	      6.54287      4.28598      4.13726         0.102161      0.028081      0.004067
O	      6.45235      1.99001      6.11422        -0.018017      0.030387      0.001109
O	      8.66449      4.19372      6.02466         0.003289      0.090603     -0.114574
O	      2.15109      4.26297      4.02731         0.135452     -0.156814      0.003926
O	      4.26101      6.42575      4.05814         0.124275      0.075859      0.006005
O	      4.54146      4.03852      6.10046         0.029675     -0.007959     -0.027298
O	      6.74717      6.28961      6.06576        -0.002433     -0.016785     -0.029264
O	      6.62367      4.18700      8.12440         0.008163      0.062157     -0.027111
O	      8.80850      6.25415      8.05890        -0.024452      0.020416     -0.252720
O	      2.24430      6.38237      6.02464        -0.027193     -0.055220      0.156434
O	      4.39342      8.57973      5.98067        -0.051817      0.024210      0.110643
O	      4.33503      6.31916      8.23458        -0.015683      0.017347     -0.015769
O	      6.58799      8.43184      8.14292        -0.010720      0.060653      0.014491
O	      6.77190      6.23734     10.25246        -0.085186      0.045290      0.022560
O	      8.92198      8.45662     10.17171        -0.279160      0.079046     -0.051182
