# total energy = -237.72533822 eV
 
CRYSTAL
PRIMVEC
0.006579 6.296466 6.361508 
6.400633 -0.012104 6.380336 
4.274100 4.217346 -0.014943 
PRIMCOORD
36 1
Li	      0.06307      6.25464      6.33960         0.035134     -0.023522      0.011917
Li	      8.55770      8.37947     12.66489         0.025570      0.032665     -0.025627
Li	      2.12461      6.29813      8.29315        -0.082134      0.008359     -0.039396
Li	      8.53583      4.20812      8.33987         0.012926     -0.008277     -0.093180
Li	      8.53321      6.24068      6.43781        -0.001356      0.007129      0.025003
Li	      6.32515      4.28488     10.60564         0.029446     -0.029696      0.004663
Li	      2.07058      6.32352      4.35158        -0.033201     -0.029906      0.018688
Li	      4.16258      6.31413      6.40325         0.014823      0.022430     -0.037346
Li	      6.36357      6.27555      8.57822         0.005667      0.022856      0.014297
Sc	      6.45748      8.25052     10.68793        -0.034963      0.063458      0.001765
Mn	      4.26596      4.25983      4.25877         0.029674      0.048421      0.008090
Mn	      6.48369      4.26977      6.41849        -0.059836      0.001498     -0.083986
Mn	      2.15273      4.23131      6.38527        -0.117131     -0.125423      0.073148
Mn	      4.28587      4.29433      8.50798         0.036218     -0.136087      0.030427
V	      4.20622      8.34926      8.35908         0.069704      0.060514     -0.011296
V	     10.57542      6.22991      8.38937        -0.041581      0.084989     -0.025305
V	      2.09832      2.18836      4.22045         0.034645     -0.028284      0.035572
Ni	      8.59098     10.47402     10.67102        -0.022507      0.039274      0.041886
O	      2.15477      2.05198      2.25049        -0.012693      0.026765      0.011107
O	      4.26241      4.22760      2.12174         0.052530     -0.222330      0.025467
O	      4.21124      2.09681      4.07725         0.051312      0.118559      0.100758
O	      6.45633      4.35567      4.39837        -0.031055     -0.007777      0.013099
O	      6.44506      2.00946      6.44174        -0.033753      0.005144     -0.048720
O	      8.37997      4.23463      6.33750        -0.028487      0.031026      0.108659
O	      2.12677      4.05515      4.36685         0.059668      0.063340     -0.044181
O	      4.46709      6.35793      4.03780        -0.085068     -0.040351     -0.048337
O	      4.43563      4.22723      6.38865         0.029113     -0.000058      0.114141
O	      6.43305      6.46470      6.22751         0.014708      0.016862      0.050931
O	      6.47985      4.03262      8.36035        -0.062666      0.054827      0.041791
O	      8.80771      6.27090      8.51679        -0.016358      0.052304     -0.010276
O	      2.18211      6.08753      6.31982         0.084546      0.082414      0.049302
O	      4.19204      8.43697      6.57042         0.052291     -0.118384      0.043474
O	      4.25752      6.45323      8.58233        -0.029022     -0.038873     -0.227027
O	      6.27742      8.39214      8.46869         0.038061      0.017083     -0.036700
O	      6.37602      6.29375     10.60213         0.056968      0.009909     -0.012291
O	      8.47488      8.40730     10.59069        -0.041194     -0.060860     -0.080514
