# total energy = -244.02929998 eV
 
CRYSTAL
PRIMVEC
0.066710 6.391137 6.282886 
6.496574 0.042765 6.305296 
4.361034 4.305420 -0.000396 
PRIMCOORD
36 1
Li	      4.46021     10.38121      6.21314         0.001379     -0.015500     -0.006719
Li	      2.36985      8.51224      6.18741        -0.020838     -0.009500      0.012193
Li	      4.48473      8.47968      8.31869        -0.007786     -0.012411     -0.004227
Li	      4.49738      6.41878     10.39355         0.026692      0.010374      0.024959
Li	      2.33156      2.16344      4.21408         0.020325      0.031432     -0.022446
Li	      4.39938      8.60218      4.28408        -0.002289     -0.004374     -0.039139
Li	      6.37906      8.55301      6.31700        -0.000126     -0.037151     -0.003877
Li	      8.65244      8.73658      8.45914        -0.011173     -0.015217      0.004076
Li	      6.47585      6.35294      8.45452         0.001156     -0.044259      0.008061
Sc	      6.54255      2.22042      8.39104         0.063429      0.022799     -0.003563
Mn	      2.25859      6.41694      8.36103         0.103649      0.054187     -0.118778
Mn	      6.55527      8.54361     10.44459         0.042743     -0.105768      0.023268
Mn	      2.27934      4.15316      2.10719        -0.060049     -0.072895     -0.125122
Mn	      8.62781      6.57684      6.36858        -0.000151     -0.051818      0.098100
Mn	      4.44302      6.51671      6.32357        -0.094057      0.186248      0.069043
V	      4.39751      4.32427      4.21353        -0.138748      0.035865     -0.048806
V	      6.65001      4.39272      6.29003         0.161082     -0.047439      0.108227
V	      8.58274      6.44529     10.55737        -0.094569      0.018676      0.131912
O	      2.11193      2.03433      2.09400        -0.005271     -0.004299      0.025951
O	      4.48952      4.34945      2.09425         0.041923     -0.014079      0.111848
O	      4.50368      2.30932      4.23762         0.011168     -0.026771     -0.070412
O	      6.43636      4.42765      4.31213         0.008221      0.010985     -0.057206
O	      6.43391      2.38002      6.25384         0.049059      0.033884     -0.030438
O	      8.49999      4.32321      6.24856        -0.052381      0.012065     -0.011712
O	      2.36489      4.33258      4.20388         0.066030      0.021297      0.019383
O	      4.24381      6.40107      4.20804         0.006573      0.008480      0.020234
O	      4.58073      4.48710      6.28027        -0.010481      0.013069     -0.046278
O	      6.56398      6.37317      6.33661        -0.016121      0.014877     -0.006754
O	      6.56601      4.27933      8.28259        -0.052129      0.019853      0.000562
O	      8.78986      6.38700      8.54839        -0.003288      0.050504     -0.039312
O	      2.20038      6.34570      6.09209         0.011254     -0.004470     -0.049179
O	      4.38540      8.39709      6.26504         0.032569     -0.066894     -0.008646
O	      4.23283      6.44687      8.32151        -0.014668     -0.009060      0.009942
O	      6.58256      8.76255      8.48069        -0.024273     -0.007947      0.040448
O	      6.65161      6.36664     10.48739        -0.018971      0.000528     -0.017061
O	      8.49705      8.39805     10.47787        -0.019883      0.004730      0.001467
