# total energy = -224.13067850 eV
 
CRYSTAL
PRIMVEC
0.037824 6.206053 6.250650 
6.415786 0.020338 6.268714 
4.271811 4.143881 0.018808 
PRIMCOORD
36 1
Li	      2.14113      2.10405      0.14794        -0.001721      0.027546     -0.043408
Li	      2.21027      0.10308      2.13917         0.047564     -0.017124     -0.026730
Li	      4.15531      2.06107      2.07049         0.059487     -0.027686     -0.015288
Li	      0.14860      2.09030      2.06758         0.028664      0.037236     -0.060409
Li	      4.34077      2.13450      6.25108        -0.012535     -0.049703      0.046518
Li	      6.28643      4.08398      6.26848        -0.002156      0.009391      0.022030
Li	      2.24341      6.14947      4.13337        -0.008019      0.058157     -0.012108
Li	      2.26243      4.18228      6.26891         0.019037     -0.022309      0.063719
Li	      4.24263      6.09029      6.25599        -0.001126     -0.049978      0.014359
Sc	      4.34590      8.18638      4.21817        -0.423981      0.211931     -0.096545
V	      0.28564      6.24260      6.45220        -0.129469      0.231317     -0.121139
V	      8.49889      4.21454      4.30425         0.102027     -0.373823      0.300692
V	      6.42200      6.23829      8.14175        -0.217449     -0.009456     -0.243271
Cr	      4.27655      4.11824      8.28318        -0.303214      0.044712      0.187868
Co	      4.26444      4.15212      4.28631        -0.094413     -0.108734      0.075421
Cu	      2.16162      4.12336      2.08953        -0.019514      0.185911     -0.227494
Ni	      6.40035      2.08290      4.18086         0.114688     -0.051412     -0.070334
Ni	      2.12617      2.07873      4.13122         0.102746     -0.256903      0.228302
O	      2.14836      2.20075      2.10707         0.016259      0.026310      0.039850
O	      4.37748      4.18641      1.97166         0.050427     -0.031984      0.185851
O	      4.27589      2.01479      4.16804        -0.099975      0.362901     -0.095977
O	      6.55436      4.14298      4.20907        -0.203278      0.171148     -0.023876
O	      6.40366      1.85613      6.21489         0.054985     -0.039801      0.157731
O	      8.65353      4.16798      6.13126         0.006556     -0.076702     -0.156236
O	      2.13398      4.12879      4.13980         0.293620      0.109549      0.021030
O	      4.29911      6.18286      4.21584        -0.009616     -0.010719     -0.054570
O	      4.27798      4.12585      6.32109        -0.010671      0.013578     -0.276471
O	      6.35479      6.21856      6.38438        -0.091136      0.095116     -0.123417
O	      6.27114      4.24677      8.33193         0.192384     -0.310773      0.186288
O	      8.35524      6.20832      8.33840         0.274691     -0.186870      0.148850
O	      2.02314      6.24053      6.25963         0.099273     -0.030183     -0.031513
O	      4.29056      8.54913      6.24657         0.041930     -0.116552     -0.009374
O	      4.39964      6.16142      8.47040        -0.172361      0.106653      0.026818
O	      6.53101      8.16332      8.37902         0.067128      0.254805     -0.077126
O	      6.32788      6.22360     10.39102         0.067295     -0.131855      0.007614
O	      8.56477      8.37771     10.36213         0.161874     -0.043692      0.052346
