# total energy = -222.51031908 eV
 
CRYSTAL
PRIMVEC
-0.006393 6.485170 6.113640 
6.369253 -0.008514 6.115852 
4.218387 4.296752 0.022706 
PRIMCOORD
36 1
Li	      4.29115      4.27233      0.12284        -0.012993     -0.063473      0.091254
Li	      4.23143      2.20224      2.08491        -0.027432      0.057167      0.006837
Li	     10.48519      6.35000      8.17690        -0.018086     -0.081396      0.043376
Li	      2.18111      4.36579      2.06015         0.025876     -0.017991     -0.004314
Li	      6.27356      4.30212      6.13683        -0.035398      0.005557     -0.029495
Li	      2.14437      6.41972      4.13472         0.018805     -0.012135      0.059020
Li	      2.14491      4.48743      6.10000         0.006391      0.062205     -0.038889
Li	      4.14961      6.41441      6.12299        -0.055250      0.018621     -0.058688
Li	      4.24968      4.28653      8.06917         0.020719      0.019430     -0.092858
Sc	      2.06292      2.04607      0.16254         0.118774     -0.027759      0.196230
V	      8.45675     10.72977     10.23621        -0.129848      0.109513      0.003865
V	      0.10331      4.24842      4.09202         0.293403     -0.082199     -0.074616
V	      6.39549      6.51383      8.03876        -0.285218      0.011519      0.252750
Cr	      6.37642      8.56554     10.21590         0.021418      0.045099     -0.172835
Co	      4.14585      4.39855      4.09710        -0.092109      0.128670     -0.033564
Cu	      6.31930      6.46991      4.12226        -0.441954      0.126867     -0.066285
Cu	      4.29658      2.17187      6.14535         0.142395      0.231573      0.339461
Ni	      6.32819     10.75464      8.15980        -0.103319     -0.028754      0.072753
O	      2.15693      2.08381      2.17505         0.104834      0.033740     -0.373096
O	      4.25873      4.28057      2.26093        -0.083227     -0.014348     -0.070674
O	      4.36360      2.00641      4.16465        -0.120576     -0.078408      0.073122
O	      6.47288      4.09401      4.05083        -0.018973     -0.229932      0.116945
O	      6.34884      2.13174      6.10496        -0.079148     -0.026870     -0.043618
O	      8.48400      4.17806      5.95899         0.000090     -0.021929      0.013976
O	      1.99521      4.36987      4.05804        -0.086860      0.267587     -0.045218
O	      4.21307      6.66383      4.02499        -0.113489      0.018741      0.011463
O	      4.24830      4.42637      5.87924         0.006553     -0.220912      0.130810
O	      6.41499      6.43975      6.12306         0.469886     -0.032718     -0.267350
O	      6.30762      4.58275      8.29651        -0.000494      0.029143     -0.065671
O	      8.32132      6.48375      8.07413         0.124981      0.010849     -0.091489
O	      2.09605      6.51897      6.16161         0.025574      0.073337     -0.189228
O	      4.16447      8.68962      5.92655        -0.042007     -0.001087      0.095417
O	      4.29779      6.48438      8.27902         0.102713     -0.016184      0.006252
O	      6.33292      8.43706      8.18954         0.023206     -0.056230      0.103359
O	      6.27607      6.50957     10.10766         0.179858     -0.107395      0.060831
O	      8.44456      8.70707     10.20503         0.060906     -0.129897      0.040168
