# total energy = -223.32457615 eV
 
CRYSTAL
PRIMVEC
-0.002487 6.227767 6.644009 
6.173799 0.016975 6.621922 
4.116146 4.138128 0.011409 
PRIMCOORD
36 1
Li	      6.21634      6.18444     13.11234        -0.035656      0.042593     -0.090615
Li	      4.02547      8.29281      8.68925         0.052080     -0.000199      0.010683
Li	      6.19161      2.26238      8.83484        -0.075980     -0.025028      0.012426
Li	      1.94105      4.00715      2.24625         0.055921      0.086015      0.020202
Li	      2.06610      2.06049      4.23141         0.017246     -0.016733     -0.100926
Li	      6.16126      4.20783      6.76638         0.001097      0.016557     -0.001019
Li	      4.11782      8.21936      4.37981         0.008024      0.002304     -0.034363
Li	      2.06421      6.30110      4.53858        -0.015626      0.006584     -0.010377
Li	      8.31521      8.25031      8.94060        -0.039059      0.004374      0.051449
Sc	      6.23166      6.17953      8.90127        -0.068692      0.076534      0.097532
V	      8.20198      4.12705      4.45678        -0.163334      0.213216     -0.092602
V	      4.04472      4.26401      4.26186         0.098714      0.012244     -0.200671
V	      4.28880      2.09188      6.70926         0.095044     -0.043748     -0.145911
Cr	      2.05167      4.17275      6.62583         0.200152     -0.180315     -0.036802
Co	      2.06524      2.11279      0.08717        -0.028089     -0.079678     -0.081952
Cu	      2.03464      6.24877      8.69667        -0.104099     -0.108723     -0.095323
Cu	      6.16320      2.09222      4.40011        -0.097659      0.082224      0.031233
Cu	      4.15539      6.23365      6.58272         0.208864     -0.150931     -0.041271
O	      2.03315      1.94820      2.06413         0.041274      0.048063      0.029903
O	      4.02266      4.01232      2.53687         0.014990     -0.065552      0.189542
O	      4.13787      2.10744      4.64647        -0.073398      0.002754      0.052120
O	      6.07664      4.08040      4.46559         0.076905     -0.023539      0.165599
O	      6.05806      2.06834      6.75358         0.152198      0.012919      0.178427
O	      8.20741      4.28507      6.43135        -0.048234     -0.231838      0.052715
O	      2.24041      4.12315      4.53837        -0.140429     -0.055673      0.105031
O	      4.15077      6.01761      4.33441         0.003450      0.040804     -0.034131
O	      4.09219      4.11940      6.46399        -0.039413      0.138492      0.057541
O	      6.21439      6.28984      6.73894        -0.140852      0.014556      0.007118
O	      6.16351      4.22600      8.91264         0.016065     -0.031515      0.002082
O	      8.23669      6.24441      8.66297         0.057750      0.011321     -0.030406
O	      2.16612      6.16305      6.58910        -0.122802      0.252109     -0.044873
O	      4.16795      8.20412      6.57804        -0.143373      0.121094      0.002376
O	      4.11733      6.31046      9.27248        -0.029095      0.083117      0.098089
O	      6.18596      8.39870      8.63572        -0.001517      0.026947     -0.197779
O	      6.08189      6.33123     11.05948         0.122453     -0.141318     -0.030478
O	      8.13688      8.42925     11.20785         0.145079     -0.140032      0.105431
