# total energy = -223.23158338 eV
 
CRYSTAL
PRIMVEC
-0.010866 6.233383 6.410853 
6.337982 0.002770 6.397039 
4.226093 4.146948 0.001182 
PRIMCOORD
36 1
Li	      8.33593      2.06538      6.33243         0.008717      0.001735     -0.060454
Li	      6.39677     10.19517      8.69775         0.008078      0.034702      0.060714
Li	      4.43247      8.27689      8.58673        -0.005014      0.018209     -0.010586
Li	      4.22242      6.21233     10.45754         0.014994     -0.023500     -0.014936
Li	      6.29734      8.32820     10.60717         0.029318     -0.024362      0.029906
Li	      6.32765      2.07319      8.40930         0.003608     -0.027252     -0.013552
Li	      4.31234      2.16778      6.38417         0.000356     -0.021982      0.002913
Li	      6.35542      8.27898      6.62357         0.014889     -0.009280      0.017353
Li	      6.27103      6.37769      8.62167         0.001157     -0.018699      0.028417
Sc	      4.24313      6.28354      6.55281        -0.093049      0.026699      0.035122
V	      8.46478      4.07611      8.40436         0.053559     -0.034299      0.006655
V	      2.26892      2.02126      4.30728        -0.029700     -0.008370      0.064306
V	      8.40045      6.28230     10.66685        -0.093450      0.127135     -0.019173
Cr	      6.33386      4.18034     10.65177        -0.131797      0.093916     -0.035947
Co	      6.36429      0.06097      6.40027        -0.009111      0.016238      0.025577
Ni	      4.22932      4.17003      4.30133        -0.070783     -0.013858     -0.039988
Ni	      6.29079      4.06199      6.39400         0.067562     -0.011029      0.026141
Ni	      8.30501      8.32581      8.50233         0.134512     -0.082721     -0.044297
O	      2.05618      2.25947      2.29057         0.023642      0.000845      0.015227
O	      3.96913      4.14844      2.20373        -0.062379      0.007318     -0.078028
O	      4.03892      2.10395      4.27725         0.011939     -0.061016     -0.101825
O	      6.26352      4.27358      4.28132         0.127962      0.017568     -0.000141
O	      6.34037      2.04129      6.39268        -0.019662     -0.197006     -0.014155
O	      8.39587      4.15067      6.63763         0.099634      0.012278      0.084916
O	      2.06058      4.13832      4.18197        -0.082060      0.033547      0.023832
O	      4.23139      6.26944      4.28954         0.013324      0.172155      0.032950
O	      4.25499      4.16171      6.39280        -0.142589      0.025069      0.023648
O	      6.30083      6.16847      6.23347         0.012209      0.091414     -0.089794
O	      6.51165      4.18213      8.60182        -0.006346     -0.000772      0.052836
O	      8.47052      6.08459      8.75970         0.011503     -0.035704     -0.028795
O	      2.15033      6.20992      6.12606        -0.039778      0.010237     -0.019662
O	      4.17295      8.36728      6.26536         0.013044      0.035709     -0.016613
O	      4.20633      6.22075      8.52180        -0.011735      0.090530     -0.053692
O	      6.34277      8.30643      8.55960        -0.112916      0.001093      0.017796
O	      6.44868      6.17856     10.67942         0.161232     -0.126000      0.005678
O	      8.55478      8.21412     10.56750         0.099132     -0.120546      0.087654
