# total energy = -225.19717652 eV
 
CRYSTAL
PRIMVEC
-0.007132 6.388163 6.269523 
6.141173 0.013426 6.248863 
4.095803 4.246773 0.007207 
PRIMCOORD
36 1
Li	      2.10711      6.42153      8.33101         0.024967      0.010130      0.008165
Li	      6.14839      2.26785      8.32142        -0.021889      0.049694     -0.069057
Li	      8.06593      4.26789      8.30810        -0.016251     -0.013366     -0.015786
Li	      8.00342      6.39013      6.35470        -0.006833     -0.014794      0.011667
Li	      6.14903      4.34266      6.31973        -0.033090     -0.015741     -0.007992
Li	      0.03105      4.20741      4.10361         0.000076      0.017974     -0.013608
Li	      8.21588      6.39518     10.39885         0.021135     -0.019014     -0.035546
Li	      6.15761      8.33248      6.31657        -0.046886     -0.044232     -0.011823
Li	      6.12122      6.37769      8.24347        -0.039306     -0.013228      0.025317
Sc	      0.08995      0.00647      0.09162         0.029649     -0.005515      0.078610
V	      8.16458      4.25299      4.18226         0.067434      0.025310     -0.079422
V	      3.99900      4.31956      4.14962        -0.052399      0.124853      0.004169
V	      4.15530      4.10437      8.24276        -0.007065      0.090477     -0.071252
Cr	      6.14968      8.50782     10.45348        -0.024304      0.049313      0.009253
Co	      2.07924      8.51050      6.31232        -0.012154     -0.064329      0.072338
Co	      4.10730      8.50498      8.35653         0.031038     -0.013485     -0.027593
Cu	      4.11643      6.38973      6.25079        -0.069844     -0.080164     -0.005662
Ni	      6.10393      6.38094      4.18462         0.046394     -0.074296     -0.184502
O	      2.19891      2.15099      1.98932         0.063303      0.014673      0.059461
O	      4.11681      4.09896      2.19557         0.022462     -0.072109     -0.105610
O	      4.11094      2.16487      4.06334         0.118211     -0.030753      0.033820
O	      6.06418      4.17652      4.19514         0.048153     -0.065011      0.048358
O	      6.27032      2.10225      6.21404         0.087122     -0.089910      0.057678
O	      8.20375      4.12784      6.20191         0.043623     -0.065721      0.038919
O	      2.19558      4.22411      4.16535         0.004393      0.025015      0.017447
O	      4.12113      6.21590      4.03860        -0.082198     -0.103811     -0.137166
O	      4.06304      4.25582      6.27198        -0.050707     -0.120774      0.027744
O	      6.04581      6.37326      6.16952         0.029076     -0.015567      0.117405
O	      5.94799      4.33069      8.36913        -0.016026     -0.020470     -0.035231
O	      8.14041      6.56239      8.31614        -0.015402     -0.017779     -0.006319
O	      2.13463      6.56097      6.27071        -0.045151      0.148189     -0.017909
O	      4.04403      8.50946      6.41385        -0.019556      0.142912      0.107192
O	      4.08154      6.51274      8.49938         0.013561      0.111258      0.132138
O	      6.16690      8.53815      8.44916         0.029152     -0.000821     -0.033119
O	      6.06239      6.49158     10.51999        -0.034989      0.054517      0.052650
O	      8.14874      8.55862     10.46201        -0.085699      0.096572     -0.044734
