# total energy = -223.99114075 eV
 
CRYSTAL
PRIMVEC
-0.024815 6.275171 6.213762 
6.409385 -0.003999 6.193774 
4.248166 4.146219 0.022202 
PRIMCOORD
36 1
Li	      6.53736     10.28544      8.35739         0.022119      0.020100     -0.000815
Li	      4.41268      8.19785      8.37551         0.049150      0.026644      0.031296
Li	      6.29245      8.38058     10.15312        -0.026511     -0.047829     -0.037839
Li	      6.48989      6.10559      4.20187         0.065172      0.001428     -0.028889
Li	      4.41149      4.00623      4.17325         0.043199     -0.064901      0.009268
Li	      4.24563      2.13895      6.12953         0.059543      0.005078     -0.009002
Li	      8.54119      6.30736     10.31796        -0.048904      0.053111     -0.031651
Li	      4.08262      4.28977      8.19018        -0.024711     -0.023305     -0.064280
Li	      6.22458      6.41158      8.26341        -0.062595     -0.072019     -0.041072
Sc	      0.07383      6.29621      6.21258        -0.015302      0.066918      0.005929
V	     10.55623      8.36368     10.32753        -0.045812      0.044590      0.041420
V	      4.18812      6.22646      2.14851        -0.141272      0.028074     -0.003089
V	      2.11800      4.16591      2.17184         0.068949      0.090386     -0.085797
Cr	      6.42729      8.28326      6.26855         0.019701     -0.002495      0.068816
Co	      4.20672      6.32854     10.22323        -0.216298      0.259251      0.103254
Co	      4.24200      6.24516      6.22951         0.156062     -0.244485      0.172229
Cu	      8.50218      2.06685      6.22363        -0.064096     -0.029412     -0.032311
Cu	      6.34367      4.20685      6.14506        -0.030183      0.004836     -0.056455
O	      1.88971      2.15139      2.08314        -0.055759      0.013751      0.133131
O	      4.12733      4.22734      2.17216        -0.038448      0.026966     -0.051325
O	      4.26550      1.88732      4.16084         0.029223     -0.127153     -0.053858
O	      6.57191      4.12852      4.23191         0.213094     -0.100120      0.028401
O	      6.35244      2.08075      6.33977        -0.090006     -0.022714      0.036711
O	      8.63608      4.11494      6.46193         0.142329      0.038123      0.148546
O	      1.98172      4.19572      4.04308        -0.081693      0.019567      0.095187
O	      4.19245      6.39507      4.13574        -0.074329      0.029125      0.025951
O	      4.14929      4.31497      6.13254        -0.242132      0.052723     -0.004543
O	      6.18932      6.26572      6.20492        -0.132453     -0.012950     -0.054502
O	      6.46518      4.08789      8.23400         0.082943      0.016404      0.026562
O	      8.70379      6.16294      8.29924         0.112093     -0.061916      0.096481
O	      2.17278      6.23222      6.17666         0.018861     -0.085767     -0.017858
O	      4.36225      8.27939      6.19823         0.199567      0.038128     -0.014833
O	      4.21557      6.25429      8.17451         0.015888      0.062960     -0.194108
O	      6.38202      8.33063      8.18668         0.036956      0.024500     -0.166569
O	      6.29217      6.22623     10.34512        -0.043194      0.036675      0.083110
O	      8.61825      8.49489     10.48079         0.098847     -0.064272     -0.157495
