# total energy = -226.73767226 eV
 
CRYSTAL
PRIMVEC
-0.008882 6.190807 6.398169 
6.143770 0.010252 6.379749 
4.101705 4.120433 0.000626 
PRIMCOORD
36 1
Li	      4.11453      8.22846      8.54345        -0.013244     -0.025979      0.035039
Li	      8.19951      4.15162      4.35023         0.020565      0.032713     -0.009899
Li	      6.17809      8.21960     10.65613        -0.002726     -0.050265      0.018224
Li	      6.11428      2.10094      8.41378         0.017847      0.012642     -0.030529
Li	      2.02703      2.05238      4.15810        -0.016841      0.022716     -0.132943
Li	      6.18375      4.06677      6.32439        -0.005784     -0.019767     -0.049954
Li	      8.16772      6.20965     10.55472         0.022954      0.022615     -0.091600
Li	      6.14601      8.26336      6.45337         0.016635     -0.006065      0.007083
Li	      8.17774      8.15977      8.55740        -0.018932     -0.000682      0.045980
Sc	      6.18966     10.23165      8.59394         0.008128      0.037373      0.013564
V	      6.13346      4.19081     10.56991         0.053399     -0.105168      0.037275
V	      4.07596      4.02928      4.23509        -0.043995      0.100035      0.046627
V	      4.20592      6.14986      6.37831        -0.130634      0.013205      0.001171
Cr	      8.17604      2.10045      6.39994         0.147610      0.063375     -0.139201
Co	      8.20952      6.20905      6.44799         0.013193      0.081447      0.026853
Co	      6.12279      6.24790      8.55453         0.043564      0.006112      0.059566
Ni	      6.15733      6.22116     12.75559         0.077817     -0.098186     -0.032941
Ni	      8.16903      4.12897      8.48820        -0.027665     -0.009465      0.029519
O	      2.04813      2.05614      2.01158         0.001859     -0.128501      0.092206
O	      4.08753      4.13837      2.24823         0.073663     -0.000931     -0.018210
O	      4.01374      2.24905      4.34563         0.007060     -0.157427      0.013368
O	      6.01551      4.16037      4.23158         0.057545      0.015938      0.064574
O	      6.19606      2.01639      6.35605        -0.098699      0.176800     -0.023519
O	      8.24322      4.10460      6.39886        -0.141037      0.003637     -0.108612
O	      1.95481      4.10939      4.23114         0.125951      0.007992      0.102681
O	      4.09154      6.15785      4.41034         0.013975     -0.069135     -0.018704
O	      4.07201      4.23172      6.24039        -0.075984     -0.037712      0.055058
O	      6.02676      6.21339      6.56366         0.096389      0.016929      0.038380
O	      6.11173      4.26334      8.64545        -0.092905     -0.001249     -0.161979
O	      8.04524      6.17713      8.46207        -0.034614      0.053485     -0.004796
O	      2.15657      6.24636      6.44763         0.057741     -0.005685     -0.014023
O	      4.08400      8.23265      6.26896         0.007172     -0.093345      0.104060
O	      4.15083      6.19598      8.41169         0.078674      0.013294      0.062146
O	      6.14864      8.18984      8.55723        -0.046700     -0.040617      0.006558
O	      6.14655      6.11578     10.53895        -0.003657      0.182293     -0.017411
O	      8.39074      8.24857     10.74700        -0.188323     -0.012425     -0.005609
