# total energy = -92.92908510 eV
 
CRYSTAL
PRIMVEC
2.123232 4.248981 2.067675 
4.171089 -2.092823 -2.055427 
0.007977 4.263526 -4.172234 
PRIMCOORD
16 1
Li	      2.10113      2.20623     -0.04297         0.025359      0.042063     -0.076974
Li	      4.22633      2.20548     -2.15730        -0.102415      0.176436     -0.041748
Li	      0.04034      2.18434     -2.12965         0.080996      0.080615     -0.079832
Li	      2.11028      4.29746     -2.04209         0.095406     -0.019235      0.035401
Mn	      0.01639      0.06095     -0.06451         0.900516     -0.438808      0.684825
Mn	      2.13519      0.11068     -2.12602        -0.506883     -0.096156     -0.688618
Ni	      2.14745      2.21223     -4.14797        -0.128280     -0.424406      0.151272
Ni	      4.27808      4.34453     -4.17623        -0.070991     -0.295115      0.364679
O	      4.20981      4.34601     -2.03124        -0.146359      0.024527      0.376637
O	      4.26762      2.26240     -4.33324        -0.112882      0.348487      0.045316
O	      4.41017      2.23372     -0.00125        -0.340293      0.331806     -0.293602
O	      4.11443     -0.09164     -2.06679        -0.441952      0.609957     -0.051013
O	      2.28270      4.30298      0.08647         0.299869     -0.086800     -0.443845
O	      2.15562      1.97223     -2.11211         0.248170      0.024198      0.015221
O	      2.13276      6.68343     -2.13592         0.184457     -0.268766     -0.129942
O	      2.06007      4.32224     -4.33506         0.015279     -0.008804      0.132223
