# total energy = -227.96857728 eV
 
CRYSTAL
PRIMVEC
0.016175 6.184025 6.434694 
6.296396 0.011327 6.438218 
4.186102 4.114153 0.019784 
PRIMCOORD
36 1
Li	      4.17190      4.08253      0.11386         0.037696     -0.044948      0.083317
Li	      4.11276      2.15717      2.18790        -0.040162     -0.086684     -0.006352
Li	      6.21394      2.13409      4.32418         0.006766      0.004107      0.007801
Li	      4.20295      6.13595      2.19633        -0.045982      0.001260      0.033700
Li	      2.20613      4.05185      2.20946         0.054730      0.017664      0.083650
Li	      2.15029      2.14935      4.22442         0.042496     -0.036212     -0.037470
Li	      4.17947      4.02720      4.25802        -0.034208      0.126687     -0.029645
Li	      6.28280      4.12831      6.41525        -0.005050      0.034779     -0.028381
Li	      2.09894      4.12201      6.33099         0.005880      0.015520     -0.073609
Sc	      8.33241      4.20878      4.35439        -0.039624     -0.077545     -0.355898
V	      8.24468      2.07732      6.52538        -0.101880     -0.124512      0.115984
V	      4.21325      6.08958      6.38914         0.086202     -0.236798     -0.044957
V	      6.35074      6.25267      8.53970         0.017423      0.071843     -0.112457
Cr	      0.05756      4.11024      4.30104         0.180123     -0.142059     -0.068337
Co	      6.04737      4.15710      2.24375        -0.177672     -0.031913     -0.004499
Co	      4.24552      2.07948      6.41275         0.075636      0.190093     -0.124657
Co	      2.12317      6.13081      4.29455        -0.057894      0.087558      0.052304
Cu	      8.40222      8.22943      8.60472        -0.017434      0.027706     -0.114061
O	      2.12011      2.01535      2.02235        -0.049004      0.040316     -0.051537
O	      4.27386      4.08312      2.13238         0.110075      0.055689      0.010989
O	      4.22118      2.07199      4.44687        -0.020492     -0.207778     -0.236077
O	      6.34952      4.12083      4.15082         0.068506      0.021941      0.035688
O	      6.45623      2.06339      6.44235         0.172648     -0.016560      0.007641
O	      8.41813      4.04643      6.43406         0.055841      0.072936     -0.019979
O	      2.01062      4.17579      4.27667         0.039033      0.181501     -0.021289
O	      4.17462      6.22770      4.41296        -0.231130     -0.012939      0.039259
O	      4.21358      4.27755      6.34699        -0.015899      0.039411      0.004390
O	      6.21433      6.17941      6.58753        -0.255580      0.024096      0.028039
O	      6.22219      4.29776      8.69874         0.131992     -0.170980      0.094988
O	      8.33037      6.25957      8.43060         0.124028     -0.186794      0.346879
O	      2.20718      6.23629      6.55762        -0.111587     -0.112422      0.139672
O	      4.09715      8.07936      6.37877         0.088420      0.174137     -0.081767
O	      4.28170      6.16040      8.52049        -0.028441      0.082657      0.070800
O	      6.36706      8.10287      8.62158        -0.152028      0.222350      0.035941
O	      6.34671      6.13781     10.59809         0.107022      0.094170      0.067064
O	      8.48721      8.19393     10.91321        -0.020451     -0.098275      0.152867
