# total energy = -228.19642148 eV
 
CRYSTAL
PRIMVEC
-0.017223 6.370354 6.275987 
6.176994 0.005826 6.252757 
4.113682 4.227068 0.008366 
PRIMCOORD
36 1
Li	      4.03251     10.51892      6.28217        -0.008925     -0.025516     -0.013116
Li	      4.06234      8.47271      8.31417        -0.011772     -0.027933      0.004503
Li	      2.11814      4.16663      2.16734        -0.019089     -0.000121     -0.017215
Li	      2.04295      2.31876      4.10411         0.000458      0.022516      0.010472
Li	      3.97150      4.32412      4.21013         0.012686      0.008362      0.018903
Li	      4.14211      2.07812      6.21606         0.007687     -0.026164     -0.024273
Li	      0.08592      4.17244      4.19730         0.055396      0.012391      0.008836
Li	      2.09148      6.27869      4.23626        -0.019108     -0.079471      0.027751
Li	      4.11486      4.30526      8.37757         0.046596      0.024622      0.026090
Sc	      6.14345      4.23672      6.24998         0.042426      0.025006      0.108887
V	      6.06941      4.25131      2.09791         0.142939      0.175910     -0.059410
V	      6.12629      2.07708      4.17776         0.001760     -0.176090      0.099250
V	      6.35629      6.35104      8.37351        -0.181388     -0.082933      0.070179
Cr	      4.09137      6.39688      6.19684        -0.115227      0.032722      0.091634
Co	      4.13033      6.35661     10.45412         0.033178      0.016403     -0.040470
Co	      4.08681      6.36921      2.23830        -0.014106      0.042406     -0.028437
Co	      2.05150      4.25587      6.19114        -0.003751     -0.011808     -0.143731
Ni	      2.08243      8.51617      6.27648         0.014562     -0.089723     -0.046519
O	      2.05247      1.96091      2.04088        -0.042323      0.122786      0.222416
O	      4.28610      4.20170      2.08253        -0.161797      0.026275      0.018829
O	      4.30474      2.07794      4.18764        -0.065618      0.009396     -0.025138
O	      6.15715      4.14659      4.10427         0.043850     -0.087207     -0.154075
O	      6.16741      2.15725      6.23761        -0.100797     -0.016779     -0.006120
O	      8.19974      4.19761      6.25237         0.039906      0.132145     -0.025541
O	      2.05782      4.25193      4.33687         0.002277      0.019748      0.024521
O	      4.09677      6.38389      4.21078         0.016956     -0.033960     -0.165540
O	      4.02741      4.35729      6.25184        -0.051263     -0.062882      0.019502
O	      6.11989      6.42182      6.35416         0.082860      0.089780     -0.023094
O	      6.13953      4.40266      8.33083         0.042282     -0.051969      0.009639
O	      8.10942      6.38781      8.32369         0.249708     -0.013884      0.011571
O	      2.08752      6.29833      6.36543        -0.043964     -0.155837      0.032531
O	      4.19073      8.38897      6.25967         0.112689      0.073583      0.012715
O	      4.04587      6.36590      8.29522        -0.030552      0.011627      0.074247
O	      6.16372      8.44484      8.38146        -0.000812      0.083517     -0.006387
O	      6.18493      6.46269     10.30458        -0.065870     -0.000443      0.001447
O	      8.01252      8.51604     10.49217        -0.011855      0.013525     -0.114857
