# total energy = -231.80062537 eV
 
CRYSTAL
PRIMVEC
-0.008893 6.366019 6.155059 
6.336892 0.019601 6.124757 
4.219262 4.219751 0.018760 
PRIMCOORD
36 1
Li	     10.41381      4.21430      6.21374        -0.103027      0.075906      0.019977
Li	      8.44374      2.24923      6.19242         0.007547     -0.008061     -0.004141
Li	      8.40122      4.25134      4.14688         0.014966      0.044552      0.066071
Li	      0.15443      2.03809      2.01218        -0.038744     -0.027083     -0.060751
Li	      2.16609      4.05499      2.03079         0.011877     -0.031590     -0.007514
Li	      2.09679      2.13252      4.02050        -0.000274     -0.028751      0.013757
Li	      6.30302      8.45108      6.16704        -0.011459      0.008679     -0.020969
Li	      4.21429      4.35741      8.19078         0.052792      0.046142     -0.026995
Li	      6.17377      6.40315      8.19638        -0.096328     -0.016628      0.000803
Sc	      8.31756      6.31457      6.24421         0.160287      0.021646     -0.133021
V	      6.36342      8.50295     10.25305        -0.153216     -0.052517      0.305273
V	      6.36253      4.29186     10.17775        -0.093294      0.012733     -0.068663
V	      8.45794      6.35887     10.18320        -0.018227      0.077972     -0.097097
Cr	      2.12467      6.40703      8.12568         0.041404      0.024603     -0.014509
Co	      4.17710      2.12162      2.00316        -0.142575     -0.004515      0.044453
Co	      4.20284      4.23995      4.05366         0.024743     -0.053970      0.037788
Co	      6.34793      4.27196      6.22307         0.027879     -0.075404      0.029181
Co	      4.24744      6.35950      6.13326        -0.007884     -0.015813      0.111928
O	      2.11083      2.00524      2.03824         0.151549     -0.001359     -0.023618
O	      4.32956      4.18446      2.03459         0.045018      0.015010      0.028762
O	      4.33930      2.12408      4.13099         0.103623      0.004090      0.008960
O	      6.37038      4.10831      4.02898        -0.040390      0.022949     -0.052710
O	      6.27396      2.14092      5.98442        -0.016644      0.072301     -0.014396
O	      8.37061      4.31465      6.18485        -0.062591      0.002396      0.027311
O	      2.00333      4.35683      4.08554         0.151591     -0.015920      0.001580
O	      4.15521      6.43283      4.18094        -0.005347      0.003136      0.000526
O	      4.27846      4.36702      6.12037        -0.016607     -0.034026     -0.090771
O	      6.24838      6.38869      6.17505        -0.058966     -0.068865     -0.007359
O	      6.28500      4.27285      8.37903         0.008177      0.019636      0.092602
O	      8.49097      6.39939      8.35954        -0.013115      0.024045      0.104907
O	      2.28587      6.31241      6.06200         0.040434     -0.018812      0.023031
O	      4.20903      8.33374      6.00242         0.029225     -0.008333     -0.066904
O	      4.15351      6.41560      8.05743        -0.040688     -0.032168     -0.053755
O	      6.33336      8.52625      8.37530        -0.006813      0.003877     -0.173114
O	      6.46393      6.35593     10.29937         0.041604      0.008068     -0.013040
O	      8.41654      8.38077     10.26785         0.013471      0.006075      0.012417
