# total energy = -221.03396847 eV
 
CRYSTAL
PRIMVEC
0.044823 6.161169 6.160099 
6.444987 0.021803 6.182361 
4.323654 4.149125 -0.012329 
PRIMCOORD
36 1
Li	      2.24873      6.11696      8.18050        -0.029604      0.008843      0.009299
Li	      4.46285      8.14778      8.24556         0.107032      0.005486      0.007674
Li	      8.66599     10.17698     10.20881         0.007306      0.041235     -0.024892
Li	      6.62866      8.27764     10.27036         0.002841      0.006811      0.043127
Li	      8.59552      4.19580      8.19904        -0.000188     -0.015534     -0.000521
Li	      6.39568      4.12457      6.18991        -0.138082     -0.004827     -0.032300
Li	     10.57256      8.31657     10.25151        -0.013639     -0.003580      0.018075
Li	      2.26639      4.14248      6.24189         0.009604      0.010103     -0.005752
Li	      8.61753      8.29363      8.31648        -0.035283      0.035387      0.003471
Sc	      2.18059      2.10007      4.05170         0.008885      0.055206      0.040799
V	      4.35084     10.20141      6.11040         0.176576     -0.133463      0.027730
V	      4.37909      4.08530      4.11982        -0.018505     -0.014668     -0.032527
V	      6.43377      6.19701      8.19854        -0.086621     -0.125595      0.015640
Cr	      6.40418      2.15878      8.19885         0.025351      0.062007      0.073480
Cu	      8.55575      2.11498      6.18121         0.114797      0.092423      0.085647
Ni	      8.61190      6.22460      6.18078        -0.071708     -0.045895     -0.066400
Ni	      8.62632      6.24787     10.27957         0.012115     -0.125050     -0.033727
Ni	      4.29273      6.19470      6.21697         0.014484      0.152218     -0.022073
O	      8.62905      8.23895     10.41184        -0.011188      0.147542     -0.054124
O	      1.98184      2.11490      2.00412        -0.055444      0.015991     -0.017860
O	      4.34663      4.24864      1.94187         0.009013     -0.029636      0.023877
O	      4.23482      2.15518      4.11574         0.018266     -0.060682     -0.103086
O	      6.25090      4.16879      4.04576         0.018910     -0.057492      0.003105
O	      6.31472      1.95474      6.24428        -0.016708     -0.022089     -0.077791
O	      8.88488      4.13533      6.13121        -0.081443     -0.121403      0.022471
O	      2.45976      4.16000      4.05837        -0.008254     -0.036085     -0.008894
O	      4.35398      6.17924      4.08854         0.008677      0.061019     -0.148767
O	      4.32608      4.15458      6.02724        -0.024063     -0.049358     -0.017292
O	      6.46584      6.17718      6.20501         0.041908     -0.013745      0.003882
O	      6.49614      4.23641      8.24384        -0.022534     -0.083551      0.009370
O	      8.64718      6.22671      8.21953         0.018897     -0.003801     -0.003598
O	      2.07471      6.22200      6.16355        -0.022045      0.014606      0.116129
O	      4.48906      8.41349      6.20390        -0.000378      0.117190     -0.030419
O	      4.47137      6.17073      8.19326         0.049543     -0.032070      0.182627
O	      6.52582      7.98304      8.26404         0.054345      0.172904      0.028389
O	      6.54199      6.16122     10.41712        -0.062861     -0.020449     -0.034768
