# total energy = -218.53452849 eV
 
CRYSTAL
PRIMVEC
-0.007985 6.285151 6.466654 
6.230960 -0.007050 6.465577 
4.166169 4.201560 -0.017099 
PRIMCOORD
36 1
Li	      2.21041      6.10936      8.54372        -0.008837      0.024892      0.004618
Li	      4.28813      6.11654     10.64142        -0.021179      0.053971     -0.075496
Li	      6.38076      8.22666     10.65752        -0.063726      0.037228     -0.050203
Li	      6.25360      4.16110      6.40880         0.019560      0.018454     -0.028382
Li	     10.20213      8.54649     10.80541         0.015510      0.040629     -0.014643
Li	      8.15944      6.49162     10.79039        -0.035207     -0.031305      0.026522
Li	      6.24513      8.47849      6.61152         0.018696     -0.033127      0.014980
Li	      8.10109      8.53085      8.85852         0.007670     -0.001466     -0.000808
Li	      6.19601      6.41086      8.75271         0.019199     -0.031971      0.013427
Sc	     10.34637      6.25861      8.57857         0.068048      0.135269     -0.039065
V	      8.18133      4.23484      8.62246        -0.158490      0.017780      0.117909
V	      6.28275      6.29546      4.39867         0.472999      0.125095     -0.356672
V	      4.23251      4.15650      4.36238        -0.719288     -0.543160      1.160017
Cr	      4.23268      8.32365      8.55640         0.165445     -0.164471     -0.036543
Cu	      6.31284      6.23119     12.77724        -0.033036      0.035071     -0.038917
Cu	      4.19592      2.08161      6.47153        -0.318743      0.155621      0.140980
Ni	      8.29785      8.37600     12.73345        -0.067115      0.086272      0.133952
Ni	      4.08111      6.28789      6.48415         0.157525     -0.024684      0.001650
O	      6.21379      6.27661     10.86070        -0.010189     -0.003015     -0.039626
O	      2.08243      2.18914      2.30797         0.066434      0.065909     -0.307920
O	      4.03337      4.15502      2.26502         0.028314      0.017179      0.210877
O	      4.08814      2.17704      4.14706        -0.036249     -0.218627     -0.435836
O	      6.07848      4.31932      4.22856         0.617373      0.606415     -0.122021
O	      6.19922      2.01626      6.52998         0.146114      0.057302      0.080506
O	      8.37490      4.21193      6.68638        -0.019158     -0.075901     -0.001764
O	      2.23563      4.08260      4.18887        -0.529266     -0.304912     -0.049957
O	      4.27678      6.20240      4.33235         0.125697     -0.162230     -0.211406
O	      4.16105      4.14821      6.24828         0.058588      0.105128     -0.605677
O	      6.32096      6.26338      6.20217         0.032734      0.061069      0.471531
O	      6.38772      4.12725      8.61920         0.029711      0.018815      0.031969
O	      8.33550      6.13481      8.71977        -0.038416      0.017504     -0.021851
O	      2.03744      6.35973      6.47590         0.079716     -0.115277     -0.002069
O	      4.11760      8.42076      6.54943         0.061238     -0.060660      0.066576
O	      4.17272      6.36093      8.47551        -0.020231      0.081137      0.085059
O	      6.14649      8.37435      8.59135        -0.107351      0.011588     -0.018856
O	      8.29433      8.43154     10.77718        -0.004092     -0.001522     -0.102860
