# total energy = -219.33625422 eV
 
CRYSTAL
PRIMVEC
-0.002780 6.403081 6.147184 
6.270546 -0.017275 6.161062 
4.190330 4.288333 -0.021831 
PRIMCOORD
36 1
Li	      6.29770      6.37704     12.13190         0.020738      0.014109      0.080931
Li	      4.25522      2.05938      2.28744         0.057143      0.019883     -0.015707
Li	      4.27749      0.15938      4.13079        -0.074636      0.041658      0.033215
Li	      6.10006      2.02969      4.15466         0.028197      0.040598     -0.045517
Li	      6.34709      6.40589      4.17762        -0.002769      0.012230      0.015479
Li	      4.23081      4.16337      4.15189        -0.016151     -0.083537      0.088410
Li	      8.34566      6.38995     10.22031         0.032240     -0.041768      0.032059
Li	      4.17779      6.41604      6.07586         0.011190     -0.082990     -0.032999
Li	      4.15437      4.31827      8.19932        -0.090809      0.052245     -0.046148
Sc	      2.23770      0.07310      2.22807        -0.095655     -0.191192     -0.033869
V	      8.32819      8.46198     12.19794         0.119495     -0.128596      0.060289
V	      2.24523      4.27170      2.02349         0.094555     -0.368217      0.102428
V	      6.28222      8.55143      6.14503         0.202899      0.215757     -0.203238
Cr	      6.27751      4.24979     10.19426         0.158901     -0.068278      0.180745
Cu	      4.14668      6.39721      2.08162         0.028265     -0.116389     -0.073105
Cu	      6.23337      4.22972      6.08467        -0.122308      0.034497     -0.056302
Cu	      6.15772      6.40153      8.25399         0.038092      0.063108     -0.316257
Ni	      4.16615      2.10721      6.08849         0.016164      0.070914     -0.054929
O	      2.30810      2.20401      1.84754        -0.067446      0.077131     -0.050633
O	      4.05115      4.37399      2.11755         0.026295      0.076681      0.043284
O	      4.18495      2.13922      4.18362         0.002785     -0.071907     -0.167215
O	      6.24990      4.32246      4.19502         0.023901      0.018825     -0.150631
O	      6.38369      2.06913      6.21588         0.004415     -0.290135      0.117412
O	      8.38236      4.13213      6.24397         0.039507      0.048071      0.042866
O	      2.02092      4.29893      4.11987        -0.140928      0.001015     -0.468915
O	      4.17349      6.56184      3.99383         0.003462      0.104091     -0.112497
O	      3.93275      4.28190      6.13179         0.133028      0.014020      0.089419
O	      6.23719      6.69665      6.19563        -0.068052     -0.247820      0.409144
O	      6.40761      4.05961      8.12020        -0.069579      0.076955      0.101564
O	      8.15651      6.18078      8.06504        -0.329250      0.286482      0.246302
O	      2.06896      6.44694      6.19647        -0.001037      0.320738      0.021952
O	      4.29090      8.59910      5.99420        -0.255156      0.037082     -0.171588
O	      4.20473      6.35356      8.21989         0.310111      0.068902      0.060011
O	      6.20558      8.71573      7.97286         0.026223      0.083026      0.515948
O	      6.27531      6.28132     10.16355        -0.031904     -0.104595     -0.179059
O	      8.43851      8.50166     10.39783        -0.011926      0.017404     -0.062848
