# total energy = -220.38382250 eV
 
CRYSTAL
PRIMVEC
-0.048913 6.367090 6.329398 
6.196666 -0.026182 6.306841 
4.117075 4.216137 -0.003829 
PRIMCOORD
36 1
Li	      2.11748      2.11590      0.12726        -0.032767      0.070182     -0.053304
Li	      2.02613      0.08371      2.00034         0.084913      0.004785      0.034660
Li	      4.02071      2.18367      2.07977         0.039688     -0.091643      0.077721
Li	      6.13653      2.13445      8.38403         0.068496     -0.040111     -0.108734
Li	      8.21464      6.33736      6.42707         0.064445     -0.077502     -0.138243
Li	      6.18225      4.23230      6.41433         0.056086      0.009619     -0.123439
Li	      6.13412      4.16162     10.40558        -0.123222      0.094562      0.030881
Li	      4.04868      6.31579      6.38500         0.013588     -0.009938      0.055307
Li	      6.23325      6.16607      8.37847        -0.142570      0.078920      0.048267
Sc	      1.92921      2.17273      4.10611         0.336019     -0.255462      0.172650
V	      4.12472      6.35172     10.45025         0.399739     -0.106118      0.075553
V	      6.20486      2.13894      4.37455        -0.261559     -0.007827      0.553637
V	      6.08421      8.33044      6.52064        -0.120150     -0.078009      0.037943
Cr	      2.05730      6.31111      4.22211        -0.511944      0.270589      0.438090
Cu	      4.11354      4.18839      0.11951        -0.112479      0.123535     -0.249345
Cu	      8.18103      4.21575      8.33250        -0.057707     -0.233261     -0.020177
Cu	      4.04622      4.27800      4.15068         0.184016     -0.151118     -0.045286
Cu	      4.24381      4.14840      8.29062        -0.035695      0.180495      0.126479
O	      6.19182      4.21538      8.36281         0.231732     -0.118410      0.011870
O	      2.02038      2.18629      2.11965        -0.073181      0.279919     -0.105547
O	      3.99528      4.22607      2.12709        -0.155494      0.074689      0.153645
O	      4.21485      1.95811      4.12684         0.018057      0.629350     -0.092765
O	      6.34765      4.16399      4.16930        -0.823462      0.011666      0.025443
O	      6.14923      2.22669      6.11488        -0.038749      0.060015     -0.261553
O	      8.38713      4.18028      6.01561        -0.010033     -0.055039      0.460181
O	      1.94758      4.28513      4.43735        -0.079998      0.057816      0.080843
O	      4.03089      6.36545      4.25792        -0.064276      0.053566     -0.083267
O	      3.91933      4.26621      6.17056         0.125413      0.002321      0.206707
O	      6.19805      6.50453      6.28700        -0.016655      0.044955      0.023862
O	      8.22208      6.20813      8.53897         0.055257      0.111667     -0.169519
O	      1.92826      6.22680      6.30504         0.136752     -0.056315     -0.145711
O	      4.30610      8.36189      6.43016        -0.035630     -0.089968     -0.005056
O	      4.16241      6.30445      8.65838         0.086376     -0.280662     -0.714096
O	      6.29551      8.47338      8.32371        -0.142753     -0.032704     -0.021730
O	      6.15694      6.50535     10.54800         0.808473      0.100143     -0.070988
O	      8.11691      8.44398     10.56822         0.129273     -0.574706     -0.204978
