# total energy = -230.68632908 eV
 
CRYSTAL
PRIMVEC
0.027906 6.249361 6.422812 
6.268193 0.009319 6.440661 
4.175017 4.174860 0.008410 
PRIMCOORD
36 1
Li	      4.14163      4.20424      0.10605        -0.049117      0.011837     -0.025203
Li	      2.14837      8.26284      6.51304        -0.014508      0.028157      0.024321
Li	      1.99320      0.10773      2.13658         0.002682     -0.039586     -0.012265
Li	      2.13334      4.09707      2.24243        -0.043554      0.010924     -0.001056
Li	      1.96849      2.13024      4.12094        -0.083066      0.026064     -0.005726
Li	      4.17171      4.26179      4.18155         0.000435      0.015201     -0.026221
Li	      8.40991      6.21825      6.46243        -0.014513     -0.039208     -0.016926
Li	      4.25262      8.24659      4.30443        -0.003430      0.002163      0.025436
Li	      4.23418      4.18187      8.58827        -0.013872      0.055526      0.023380
Sc	      2.17315      4.19421      6.37674         0.061687     -0.034815     -0.034474
V	      6.24021      2.14317      4.31152         0.030541     -0.017049      0.076780
V	      6.32366      4.16505      6.44595         0.065010     -0.072890      0.015003
V	      6.32021      6.19576      8.60970        -0.162391     -0.040685      0.074315
Cr	      2.13062      6.23224      4.28452         0.119509      0.057519      0.072468
Fe	      4.03470      2.22169      2.12019         0.337305     -0.045311      0.005430
Co	      8.37985     10.38306     10.76146         0.051790     -0.026066     -0.033401
Co	      4.21798      6.18569      2.16282         0.288295     -0.127115     -0.033074
Cu	      4.18692      6.28642      6.38129         0.008143     -0.027534      0.035535
O	      2.16242      2.04752      2.16441        -0.439029      0.029879     -0.061520
O	      4.17388      4.14635      2.08419        -0.031437      0.043719      0.023978
O	      4.37221      2.04754      4.21613        -0.023155      0.092233      0.032324
O	      6.24731      4.09108      4.41499         0.018736     -0.013429     -0.051701
O	      6.20551      2.20169      6.34249        -0.013373     -0.028062     -0.061076
O	      8.14925      4.19903      6.37909         0.054794     -0.007007      0.045413
O	      2.10909      4.22804      4.36772         0.006762     -0.011738      0.020382
O	      4.09195      6.30181      4.14672        -0.133766      0.024024     -0.112096
O	      4.32711      4.28829      6.45415        -0.044213     -0.120750      0.015660
O	      6.31249      6.21691      6.59235         0.063982      0.035719     -0.030222
O	      6.27494      4.21490      8.43785        -0.054375      0.088561     -0.013511
O	      8.19498      6.25271      8.67257         0.117586      0.020769     -0.036091
O	      2.15604      6.24103      6.30499        -0.007322      0.038255     -0.088792
O	      4.25565      8.25009      6.54225        -0.058137      0.101416     -0.017944
O	      4.43788      6.29366      8.71313        -0.052396     -0.019343      0.082006
O	      6.28280      8.27185      8.65118         0.022208      0.052246     -0.018028
O	      6.34178      6.30559     10.65084         0.016922      0.028880      0.083235
O	      8.17909      8.29781     10.70833        -0.024735     -0.092504      0.023661
