# total energy = -231.93262308 eV
 
CRYSTAL
PRIMVEC
-0.015906 6.253581 6.186654 
6.338770 -0.016926 6.187625 
4.218683 4.162653 -0.004401 
PRIMCOORD
36 1
Li	      2.13850      8.32495      6.13595        -0.029552     -0.040871      0.028675
Li	      4.20217      8.26081      8.28163         0.034392     -0.006853      0.045943
Li	      6.34598      6.21517      4.17288         0.039136     -0.002466      0.031900
Li	      4.19116      4.19283      4.17785        -0.060082     -0.031636     -0.004200
Li	      6.29250      4.21969      6.16340        -0.023018      0.090217     -0.006585
Li	      4.13966      8.24061      4.15057        -0.045107     -0.023494     -0.058938
Li	      2.19682      6.29450      4.15670        -0.007370      0.023261     -0.005073
Li	      2.15157      4.12455      6.13703         0.054341     -0.068445     -0.062322
Li	      4.19627      4.20684      8.22106        -0.031675     -0.010981     -0.050899
Sc	      4.25576     10.22242      6.16873         0.070130     -0.053901     -0.053993
V	      6.38444      2.13692      4.14498         0.030519      0.090517      0.174149
V	     10.51153      6.26996      8.27967        -0.165545      0.129008     -0.076395
V	      2.07498      4.13248      2.21563        -0.033792     -0.020211     -0.026064
Cr	      6.29939      6.23162      8.24552         0.117240      0.038650     -0.060813
Fe	      4.20680      6.20697      6.06595         0.054060     -0.155578      0.004288
Co	      2.13746      6.30270      8.21076         0.038323     -0.094041      0.164886
Co	      8.45474      4.15200      4.13273        -0.031617      0.084998      0.085503
Co	      4.14424      2.19290      6.12607         0.071521     -0.273907      0.123366
O	      1.94282      2.16283      2.04648         0.204509     -0.101464     -0.076322
O	      4.10529      4.21483      2.03691         0.152005     -0.079718      0.023163
O	      4.33267      1.95708      4.12870        -0.083583      0.038714      0.276351
O	      6.51898      4.08732      4.05481         0.026102      0.045937      0.064602
O	      6.31573      2.03695      6.09743         0.181436      0.063137     -0.009931
O	      8.49913      4.19904      6.18116        -0.104907      0.231102     -0.082941
O	      2.12157      4.15624      3.95603        -0.019516      0.013365     -0.010070
O	      4.18158      6.25559      4.06811        -0.011419     -0.014565     -0.086503
O	      4.20642      4.23782      6.16804         0.080967     -0.206408     -0.008317
O	      6.24613      6.26758      6.27885        -0.167615     -0.051074     -0.105771
O	      6.45349      4.18891      8.24181         0.068739     -0.001102     -0.002678
O	      8.41430      6.15325      8.23775        -0.133832      0.057378     -0.262782
O	      2.12902      6.22307      6.21022         0.026052     -0.001530      0.005773
O	      4.21096      8.23374      6.16980        -0.087279      0.144114      0.080986
O	      4.30973      6.22935      8.35538        -0.241558      0.062469     -0.044733
O	      6.32243      8.25316      8.44274        -0.053132      0.148032     -0.040828
O	      6.22241      6.30496     10.27924         0.026725     -0.002948      0.017740
O	      8.30714      8.46667     10.32648         0.054401     -0.019704      0.008834
