# total energy = -92.76502367 eV
 
CRYSTAL
PRIMVEC
2.133691 4.269912 2.077860 
4.191636 -2.103132 -2.065552 
0.008016 4.284528 -4.192787 
PRIMCOORD
16 1
Li	      2.12188      2.22802     -0.04339         0.032557      0.049237     -0.092740
Li	      4.26807      2.22726     -2.17861        -0.129672      0.225596     -0.056534
Li	      0.04074      2.20591     -2.15068         0.098613      0.103919     -0.105387
Li	      2.13112      4.33990     -2.06226         0.120927     -0.020029      0.038037
Mn	      0.01660      0.08266     -0.08580         1.182781     -0.597694      0.922466
Mn	      2.16679      0.13280     -2.13678        -0.643676     -0.127006     -0.887960
Ni	      2.17917      2.25511     -4.17871        -0.146976     -0.554709      0.192828
Ni	      4.32033      4.38744     -4.21747        -0.066189     -0.381161      0.451916
O	      4.25139      4.38893     -2.05130        -0.181578      0.055321      0.437900
O	      4.30976      2.28475     -4.37604        -0.177820      0.486981      0.084428
O	      4.45372      2.25578     -0.00126        -0.485914      0.392556     -0.351269
O	      4.15507     -0.09255     -2.08721        -0.559005      0.838470     -0.031400
O	      2.30525      4.34548      0.08733         0.349785     -0.109342     -0.602563
O	      2.17691      1.99171     -2.13297         0.322130      0.060049     -0.021728
O	      2.15383      6.74944     -2.15702         0.217729     -0.379906     -0.174415
O	      2.08042      4.36493     -4.37788         0.066309     -0.042282      0.196421
