# total energy = -224.76279369 eV
 
CRYSTAL
PRIMVEC
0.023487 6.158402 6.239541 
6.510926 0.007000 6.255780 
4.334569 4.110820 0.010367 
PRIMCOORD
36 1
Li	     10.69284      4.10977      6.30386        -0.029227     -0.054663      0.013187
Li	      2.15548      0.04975      2.07380         0.001397     -0.042378     -0.013680
Li	      8.77347     10.21762     10.49590        -0.004986      0.001907     -0.047850
Li	      8.49267      4.08542      8.18401        -0.004513      0.004179      0.041260
Li	      6.60646      4.10453      6.43692         0.026244     -0.004896     -0.132470
Li	      6.43543      4.18602     10.23472         0.019142     -0.034532      0.116664
Li	      4.37963      6.16186      6.29358         0.001154      0.023346     -0.027912
Li	      4.61749      4.22121      8.25516        -0.041516      0.023798     -0.065827
Li	      6.46806      5.95864      8.35288         0.002626      0.114413     -0.019288
Sc	      6.53600      2.08378      4.25909         0.078875      0.014568     -0.061564
V	      4.35028      8.15003      8.27507        -0.010028      0.090654     -0.053309
V	      8.64185      6.17948     10.28427         0.019464      0.001787      0.085319
V	      6.54781      8.26228      6.34494        -0.064272      0.089112     -0.032496
Cr	      4.32448      4.11633      4.19365         0.035092      0.018702     -0.017135
Fe	      6.42266      6.13612      4.14650         0.060402      0.148622     -0.010670
Cu	      8.68677      2.15515      6.27912         0.009570     -0.191388      0.012588
Ni	      6.54449      2.11006      8.26182        -0.013464     -0.150592      0.022075
Ni	      8.65866      6.09367      6.33373        -0.076941      0.048420      0.068512
O	      2.26436      2.05658      2.07027         0.072267     -0.039835      0.104063
O	      4.36149      3.96925      2.20013         0.003915      0.030037     -0.017554
O	      4.27731      2.09946      4.14711        -0.007816     -0.049589     -0.025953
O	      6.34799      4.18801      4.19282         0.023548     -0.123061      0.011998
O	      6.35257      2.01282      6.25858        -0.060616     -0.044224     -0.123340
O	      8.68431      4.08703      6.20447        -0.023370      0.028646      0.017315
O	      2.27763      4.11906      4.24423         0.104692      0.021215     -0.023197
O	      4.37882      6.11788      4.12290        -0.050095     -0.043603      0.117038
O	      4.18804      4.07937      6.22880         0.104001      0.055803     -0.008967
O	      6.55736      6.33921      6.15447        -0.021304     -0.090057      0.073493
O	      6.51804      4.08054      8.33173         0.032580      0.149366     -0.033969
O	      8.78143      6.13387      8.48909        -0.092621      0.015782     -0.017543
O	      2.27334      6.04522      6.06349         0.008507      0.044931      0.024236
O	      4.56308      8.23497      6.37055         0.011385     -0.002516     -0.016782
O	      4.36011      6.36205      8.39716         0.014329     -0.133259      0.006822
O	      6.40554      8.26147      8.27449         0.007492     -0.011287      0.124146
O	      6.74792      6.18686     10.37454        -0.123829     -0.000267      0.047464
O	      8.64438      8.13461     10.50152        -0.012082      0.090859     -0.136673
