# total energy = -224.10227250 eV
 
CRYSTAL
PRIMVEC
-0.010716 6.431355 6.269410 
6.282418 0.023831 6.234123 
4.185929 4.262090 0.018455 
PRIMCOORD
36 1
Li	      6.31631     10.42341      8.30976         0.002563      0.067829      0.015243
Li	      4.36265      8.52292      8.33936        -0.064341     -0.005655     -0.028943
Li	      6.29984      8.57920     10.25746         0.010267     -0.014444      0.088514
Li	     10.36302      6.54734      8.44927         0.073936     -0.101379      0.031815
Li	      8.27064      4.41779      8.46832         0.074391     -0.027723      0.005572
Li	      2.21345      6.32981      4.09879        -0.033780     -0.030257      0.069887
Li	      6.23759      8.57516      6.32162         0.012534     -0.098027     -0.129248
Li	      4.22983      6.34216      6.13594        -0.073853      0.036281     -0.083439
Li	      8.28293      8.51559      8.42945        -0.044172     -0.016396      0.108654
Sc	      8.31831      6.46502      6.36000        -0.026848     -0.027350     -0.142362
V	      4.25895      4.26565      0.14297        -0.017469      0.014378     -0.329364
V	      2.12414      2.10714      0.17190         0.007150      0.058151     -0.117075
V	      4.16200      6.46854     10.28514         0.130572     -0.057840      0.232605
Cr	      4.13820      4.27130      4.05565         0.063583     -0.010417      0.003596
Fe	      6.20805      4.33118      6.36635         0.063140     -0.000356     -0.146417
Cu	      0.03893      4.23883      4.12444         0.026756      0.053964      0.046549
Cu	      6.32722      6.53505      8.37264        -0.148929     -0.139489      0.094490
Ni	      2.04092      2.14229      4.06294        -0.006314      0.009458     -0.079730
O	      6.30719      8.45697      8.30760         0.061847      0.108570      0.015737
O	      2.13634      2.16698      1.92291         0.013989      0.024821      0.024111
O	      4.18409      4.23785      1.97733         0.027500     -0.025227      0.127693
O	      4.13026      2.10094      4.15824         0.060267     -0.011009     -0.016474
O	      6.32016      4.25059      4.20546        -0.062211      0.008764      0.046272
O	      6.35212      2.16967      6.32961        -0.051785      0.087151      0.055915
O	      8.34687      4.25826      6.22761        -0.141916      0.070916      0.041145
O	      2.12596      4.20217      4.17315         0.091791      0.076327     -0.035433
O	      4.20862      6.22409      4.11571        -0.104594     -0.132594     -0.035013
O	      4.25073      4.23927      6.09439         0.061719     -0.072461      0.003534
O	      6.27213      6.27596      6.15123         0.015968     -0.024593      0.001530
O	      6.24520      4.44384      8.33714        -0.039733      0.049201      0.040544
O	      8.33283      6.46976      8.35050         0.031069      0.043567      0.040025
O	      1.98015      6.59818      6.24609         0.006963     -0.017239      0.047450
O	      4.10560      8.70040      6.21837        -0.002575      0.050289      0.047699
O	      4.18383      6.42979      8.53321         0.107984     -0.032323     -0.260970
O	      6.07740      6.62253     10.75095        -0.029311     -0.006188      0.222214
O	      8.47067      8.78598     10.60729        -0.096161      0.091298     -0.006327
