# total energy = -224.11161758 eV
 
CRYSTAL
PRIMVEC
0.018249 6.244797 6.163398 
6.507303 0.029826 6.149979 
4.368950 4.183895 -0.009625 
PRIMCOORD
36 1
Li	      8.66063      4.14263      4.12228         0.004428      0.012480     -0.003823
Li	      6.55916      8.37085     10.25689        -0.104223     -0.025764     -0.012176
Li	     10.59999      6.25492      8.22350         0.033604     -0.039826     -0.012216
Li	      8.72263      4.31320      8.23136         0.016997     -0.133926      0.015207
Li	      2.16080      2.11148      4.10830         0.078875     -0.001742     -0.008727
Li	      4.38695      4.25305      4.14356         0.038610      0.006596     -0.006638
Li	      8.69737      6.26269      6.35992         0.011009      0.002795     -0.046009
Li	      8.70618      8.18860      8.22835         0.007480      0.141618     -0.005479
Li	      6.74155      6.32794      8.19939        -0.029275     -0.001814      0.017250
Sc	      6.55453      4.21707      2.12299        -0.046375      0.006777     -0.017483
V	      6.36538      0.16150      6.08002         0.061818      0.001677      0.063502
V	      4.35036      2.08075      2.14544        -0.020376      0.081526      0.022312
V	      6.51814      4.12982     10.07816         0.051975      0.090901      0.231601
Cr	      6.53561      4.20510      6.12759        -0.020115      0.011833     -0.014116
Fe	      2.33615      4.00948      6.12202        -0.065133      0.067426      0.025201
Cu	      8.65335      2.16693      6.12561        -0.038040     -0.133335     -0.012725
Cu	      8.71863      6.26840     10.20939        -0.052946     -0.021986      0.129840
Cu	      4.46781      6.25764      6.13174        -0.011584      0.019037      0.006041
O	      8.68958      6.26956      8.32058         0.002438      0.014859     -0.236276
O	      2.37467      2.09151      1.94453         0.024231      0.053291      0.174248
O	      4.38800      4.12014      1.85979         0.022953     -0.016281      0.070402
O	      4.37907      2.15492      3.86128         0.018215     -0.011773      0.001788
O	      6.55259      4.17115      4.14957         0.013282      0.021067     -0.004652
O	      6.35050      2.08175      6.14366        -0.139188      0.084971      0.042162
O	      8.66492      4.15009      6.15546        -0.150644      0.064659      0.029341
O	      2.05530      4.20816      4.17961        -0.055263     -0.003088     -0.137867
O	      4.50969      6.39076      4.17574         0.159712     -0.055413     -0.121873
O	      4.38013      4.26497      6.14716         0.097288     -0.078050      0.027051
O	      6.69808      6.23867      6.14683         0.147257     -0.141652      0.009862
O	      6.51534      4.19659      8.29520         0.019095     -0.010921     -0.221304
O	      1.93072      6.30879      6.11399        -0.171957     -0.009051      0.047802
O	      4.55819      8.39056      6.11765         0.137987      0.017359      0.009420
O	      4.28348      6.37004      8.09119        -0.020205     -0.056177      0.120889
O	      6.44355      8.36338      8.10350         0.010664      0.003723      0.074569
O	      6.35451      6.16692     10.43456        -0.089668     -0.086847     -0.071051
O	      8.90737      8.28515     10.32905         0.057073      0.125049     -0.186073
