# total energy = -229.56712147 eV
 
CRYSTAL
PRIMVEC
-0.023276 6.334202 6.291145 
6.230165 0.004449 6.263496 
4.165802 4.216678 -0.009245 
PRIMCOORD
36 1
Li	      4.19872      4.18586      0.09539         0.005981     -0.024996      0.044367
Li	      2.09163      2.08694      0.17344         0.025827     -0.032904      0.033647
Li	      2.02656      6.34211      8.31636        -0.029668      0.076057     -0.007595
Li	      4.11270      8.47349      8.25929        -0.044277      0.007527     -0.004170
Li	      6.24597      8.44400     10.36359        -0.029426     -0.020255     -0.003128
Li	      6.32424      2.16114      8.26298         0.024051     -0.001384     -0.033938
Li	      8.28539      4.09792      8.24928        -0.009761      0.001843     -0.047617
Li	      6.24549      4.21864      6.35967         0.023924      0.048784      0.004553
Li	      6.20233      8.49422      6.40749        -0.013268     -0.028741      0.011601
Sc	      6.21810      4.23015     10.44480        -0.090479      0.252698      0.088183
V	      8.25632      4.19802      4.18593         0.175382     -0.123655      0.084775
V	      4.26452      2.09540      6.34272        -0.105758      0.057099     -0.091619
V	      4.17486      4.20313      4.06030         0.094204     -0.129561      0.109176
Cr	      2.07203      2.11951      4.09753         0.054935     -0.056593      0.152804
Fe	      8.21708      6.40774     10.50476        -0.181200      0.040141     -0.080213
Fe	      4.13653      6.38600      6.43140         0.115238     -0.213526     -0.077884
Co	      6.22712      6.40024      8.29111        -0.092655     -0.110763      0.265626
Cu	      8.25518      8.43984      8.33065         0.005683      0.081578      0.015834
O	      2.05238      2.13170      2.17949         0.002217      0.000495     -0.070441
O	      4.18688      4.18523      2.30741         0.021378     -0.020713     -0.290355
O	      4.08538      2.14660      4.26512        -0.095230      0.078292     -0.059555
O	      6.25027      4.31732      4.15331        -0.106003      0.147566     -0.042334
O	      6.01820      2.12161      6.27850        -0.038440      0.004535      0.021458
O	      8.30630      4.35312      6.15621         0.024742      0.050051      0.106264
O	      2.12724      4.23781      4.12981         0.028436     -0.018535     -0.065418
O	      4.15413      6.25664      4.22397         0.056507      0.001624     -0.061723
O	      4.16591      4.18673      6.02437         0.036337      0.037246     -0.166447
O	      6.28427      6.33061      6.19159        -0.011854      0.000736     -0.246749
O	      6.09466      4.30276      8.39463         0.184381      0.374188     -0.244351
O	      8.33183      6.34701      8.33033        -0.282071     -0.092261      0.215001
O	      2.14493      6.30207      6.16976        -0.011518     -0.050577      0.170063
O	      4.17789      8.30921      6.25228         0.026605      0.051966      0.052076
O	      4.11136      6.29188      8.41153         0.287322      0.190915     -0.028884
O	      6.31870      8.37696      8.37290        -0.063160     -0.600415     -0.041691
O	      6.19633      6.30585     10.48463         0.005793      0.000568      0.087321
O	      8.29426      8.40458     10.58274         0.005825      0.020970      0.201362
