# total energy = -230.40097581 eV
 
CRYSTAL
PRIMVEC
-0.009008 6.365943 6.259903 
6.339502 -0.016263 6.268007 
4.238061 4.260604 -0.022483 
PRIMCOORD
36 1
Li	      2.05347      6.35915      8.20655        -0.070299      0.054664      0.011627
Li	      8.41563     10.55822     10.37191        -0.003942      0.054789      0.035388
Li	      4.27743      6.39900      2.20542         0.017509     -0.015918     -0.045921
Li	      2.13511      4.21939      2.22940        -0.009656      0.035806     -0.038547
Li	      6.19865      6.50297      4.16041         0.013328      0.010108     -0.020652
Li	      4.40748      8.31256      4.20979         0.072833     -0.005479      0.024225
Li	      2.21249      6.32631      4.24063        -0.021980     -0.027520     -0.029930
Li	      2.03172      4.42748      6.12894        -0.054956      0.042001     -0.016839
Li	      4.10110      6.41930      6.15700         0.028933      0.017177      0.000942
Sc	      8.45562      6.33334      6.21200         0.135681     -0.190249      0.049351
V	      4.06528      2.13788      2.03943        -0.097088     -0.044232      0.056076
V	      6.39946      4.23647      6.26010         0.002766      0.018830      0.079331
V	      6.32347      6.35581      8.40487         0.032879     -0.031403      0.095434
Cr	      6.34165      8.50908     10.39666         0.049983     -0.056935      0.066889
Fe	      4.09996      4.43203      4.12026         0.217793     -0.253904      0.071267
Fe	      8.45934      8.53485      8.37862         0.052801     -0.029749     -0.023080
Co	      0.07592      6.32394      6.24121        -0.011049      0.077235      0.112837
Ni	      2.16523      8.42603      6.15793        -0.060291      0.188934      0.053830
O	      2.29993      2.05362      2.08996         0.028869     -0.010810      0.029605
O	      4.24961      4.06634      2.11857         0.073265     -0.025116     -0.017669
O	      4.32376      2.13349      4.11472        -0.078350      0.017901     -0.064815
O	      6.27230      4.12703      4.30623        -0.038967      0.059193     -0.188164
O	      6.36063      2.12382      6.17564         0.001402     -0.331161      0.026750
O	      8.41260      4.22319      6.27403         0.325547     -0.009219     -0.085674
O	      2.22214      4.21691      4.18987        -0.193475     -0.020763      0.046814
O	      4.26820      6.30058      4.12928         0.005054      0.238500      0.032583
O	      4.33364      4.19159      6.32425        -0.048302      0.061655      0.025747
O	      6.40959      6.30802      6.44779        -0.085947      0.051966     -0.150924
O	      6.26676      4.34280      8.31957        -0.078026     -0.014454      0.049677
O	      8.35561      6.48617      8.28650         0.050521      0.094451      0.075207
O	      2.04447      6.44544      6.24537        -0.496443     -0.273980     -0.092897
O	      4.21246      8.51956      6.36606         0.220414      0.325557     -0.105088
O	      4.33723      6.39293      8.31935        -0.062357     -0.078981     -0.011303
O	      6.29282      8.40639      8.38117         0.084417      0.057445     -0.075398
O	      6.33197      6.45021     10.24891         0.062922      0.032821      0.045470
O	      8.34185      8.55483     10.32135        -0.065788     -0.019160     -0.022146
