# total energy = -231.28024398 eV
 
CRYSTAL
PRIMVEC
-0.024146 6.380007 6.151623 
6.538023 -0.027117 6.153741 
4.350678 4.246862 -0.009918 
PRIMCOORD
36 1
Li	      8.80226      8.39349     12.05154        -0.003913     -0.002676      0.025052
Li	      8.91263     10.33500     10.19488         0.018554      0.017117     -0.035606
Li	      6.82935      8.27155     10.15483        -0.010698      0.019988     -0.021051
Li	      4.27294      4.28896      4.17595        -0.001415      0.023484     -0.027235
Li	     10.62305      8.61719     10.25756        -0.015624     -0.020075     -0.084516
Li	      8.51780      6.57348     10.29132        -0.025329     -0.001723     -0.088058
Li	      6.39861      8.55871      6.15994        -0.006381      0.003997      0.044442
Li	      8.65071      8.48781      8.33972         0.004544      0.032600     -0.044003
Li	      6.40529      6.52649      8.37069        -0.033453     -0.013106     -0.014512
Sc	      2.14494      4.29302      2.10970         0.009854      0.123737      0.006091
V	      4.34866      6.34961      2.06614         0.004905     -0.061556     -0.009026
V	      4.35369      2.14854      6.06089         0.042920      0.000570      0.055697
V	      6.53337      4.21725      6.02874        -0.075090      0.080759      0.066291
Cr	      4.38708      8.47659      8.23707         0.064492     -0.099166      0.010370
Fe	      6.46359      6.48014      4.15832         0.008178     -0.200932      0.039792
Fe	      4.12363      6.40858      6.15904         0.130602     -0.135097     -0.000468
Co	      6.57107     10.52074      8.27380        -0.072156      0.011317     -0.169202
Co	      0.14475      6.22252      5.99802        -0.046210      0.163177     -0.141431
O	      8.71713      8.45959     10.20244        -0.003544     -0.038064      0.046690
O	      2.19723      2.11421      2.13572        -0.071693     -0.272331     -0.032393
O	      4.29941      4.27210      1.96802        -0.083027     -0.064228      0.011213
O	      4.23223      2.17070      4.19833         0.003319      0.034811      0.191670
O	      6.50116      4.33334      4.22206         0.013708     -0.059613     -0.219920
O	      6.36104      2.20487      6.17292        -0.022505     -0.026384     -0.060284
O	      8.57000      4.38386      6.13533        -0.029158      0.029692     -0.038747
O	      2.21765      4.13496      4.11283         0.013649      0.143166      0.009207
O	      4.46832      6.33191      4.08634        -0.011274      0.001162      0.036962
O	      4.52962      4.21074      6.16733        -0.031407     -0.001839      0.027940
O	      6.63092      6.24738      6.15821         0.034970      0.021156      0.044239
O	      6.62293      4.07376      8.01092         0.052946     -0.009775      0.040046
O	      8.79776      6.32784      8.00790         0.072529     -0.050341     -0.111594
O	      2.22325      6.36063      6.19349        -0.062395     -0.186014      0.339708
O	      4.31648      8.39555      6.26421         0.034570      0.008507     -0.025123
O	      4.33011      6.48951      8.13211         0.066211     -0.000183      0.063589
O	      6.32329      8.54654      8.21325         0.024054      0.551082      0.173687
O	      6.54430      6.32555     10.27852         0.005265     -0.023219     -0.109515
