# total energy = -228.48779157 eV
 
CRYSTAL
PRIMVEC
0.010087 6.313706 6.335888 
6.203114 0.028799 6.316927 
4.176072 4.237007 -0.021350 
PRIMCOORD
36 1
Li	      4.18502      4.21107      0.13798         0.005913     -0.020496     -0.051786
Li	      4.13220      2.30338      2.02231        -0.007880      0.028518     -0.016212
Li	      4.16127      6.18496      2.07629         0.048245      0.062784      0.014424
Li	      2.25055      4.26028      2.11413         0.034439      0.019714      0.009732
Li	      4.10514      4.29390      4.04094         0.028643      0.025601      0.032961
Li	      6.24751      4.23841      6.33534        -0.042209      0.003372      0.034397
Li	      2.10645      6.24335      4.19486        -0.038772      0.002176     -0.010911
Li	      4.14804      6.35577      6.34431         0.027809     -0.012760      0.053016
Li	      6.24180      6.32873      8.41726         0.006400     -0.040700     -0.007441
Sc	      6.19091      8.42456     10.50805         0.019208     -0.025434     -0.041114
V	      8.31284     10.56652     10.51948         0.023869     -0.035734     -0.008844
V	      6.14327      6.39553      4.15520        -0.196173      0.019928     -0.071282
V	      4.26004      4.18824      8.38536         0.120053     -0.070403      0.073690
Cr	      2.04336      4.26240      6.34154        -0.038944      0.024037      0.010471
Fe	      2.13253      2.03287      0.17973        -0.084367      0.047007     -0.057003
Fe	      8.34744      6.27812      6.40365         0.004265      0.048797     -0.066314
Cu	      6.14872      4.25767      2.04623         0.071524      0.098016     -0.028797
Ni	      6.21476      4.29538     10.56391         0.033593     -0.083128     -0.077358
O	      4.25070      4.23997      2.11228        -0.103161     -0.005964     -0.070616
O	      2.11739      2.21939      2.13746         0.019438      0.270478      0.205669
O	      4.07044      2.09990      4.28589        -0.009067      0.066382     -0.042387
O	      6.27469      4.33425      4.21315        -0.042805     -0.088692      0.150467
O	      6.24896      2.16680      6.23759        -0.014509     -0.041644      0.022888
O	      8.28600      4.25189      6.22400         0.008321     -0.036788     -0.022049
O	      2.06301      4.15297      4.31315         0.183568      0.019087      0.026258
O	      4.36522      6.36449      4.20138         0.057814     -0.040304     -0.061060
O	      4.07691      4.15172      6.43767        -0.000100      0.006386      0.014327
O	      6.31275      6.46189      6.17200        -0.051639     -0.029561      0.014714
O	      6.03915      4.28750      8.46043        -0.045701     -0.002111     -0.052354
O	      8.32338      6.42640      8.33416         0.017898     -0.014201      0.109632
O	      2.10073      6.34943      6.29292         0.009749     -0.168303     -0.145647
O	      4.14728      8.42504      6.28329         0.082618      0.050030      0.137621
O	      4.02601      6.17783      8.52480         0.083405     -0.002038     -0.073527
O	      6.36175      8.36825      8.37924        -0.045889     -0.175606      0.007581
O	      6.11722      6.36133     10.48408        -0.011233      0.106759     -0.033754
O	      8.30125      8.45524     10.48451        -0.154322     -0.005204      0.020607
