# total energy = -232.20604233 eV
 
CRYSTAL
PRIMVEC
-0.011650 6.262362 6.290645 
6.444770 -0.006859 6.286085 
4.312214 4.188192 -0.020428 
PRIMCOORD
36 1
Li	      4.27776      4.18493      0.19731        -0.060715      0.017365      0.004492
Li	      6.32122      4.28541      2.12930        -0.033870      0.038351     -0.030462
Li	      4.15966      2.16637      2.14943        -0.047507     -0.008457     -0.001447
Li	      8.37341      4.20795      4.17778        -0.052418      0.002581     -0.017739
Li	      0.15767      1.98831      2.06102         0.005406      0.006036      0.009439
Li	      2.27500      4.09267      2.08309         0.013344     -0.021384      0.007539
Li	      2.20084      2.00225      3.95310        -0.014432      0.018278     -0.041588
Li	      6.48827      4.15697      6.17562        -0.013651      0.011927     -0.011276
Li	      8.60218      8.36319      8.42410         0.013922      0.016514      0.035711
Sc	      4.37884      2.00650      6.25716         0.049431     -0.138803     -0.065334
V	      0.02664      4.21111      4.20038         0.081936     -0.060970     -0.061719
V	      4.29942      6.22185      6.38763         0.063543      0.086989     -0.006171
V	      6.49607      6.23637      8.38066        -0.024130      0.054109     -0.014707
Cr	      8.64547      6.30273     10.44895         0.122555      0.010158      0.017444
Fe	      8.50904      2.21830      6.38637         0.091057     -0.067482     -0.072086
Fe	      4.40628      4.10242      4.02525        -0.272561      0.009038      0.037967
Fe	      6.43864      8.38723      6.33702         0.015639      0.083463     -0.034469
Cu	      6.43836      2.10776      4.15522        -0.044701      0.065447     -0.041226
O	      2.12152      2.09559      1.97064        -0.033227      0.021781      0.108403
O	      4.28245      4.20294      2.15902         0.001118     -0.003731     -0.087340
O	      4.13862      2.14157      4.24000        -0.126931     -0.045688      0.014656
O	      6.35816      4.08007      4.12391         0.264149      0.009440      0.032484
O	      6.47626      2.07939      6.20795        -0.044274     -0.002544      0.108124
O	      8.61229      4.17179      6.23628         0.007063      0.098285     -0.031191
O	      2.06444      4.29414      4.24205         0.068037      0.078853      0.017178
O	      4.26180      6.25869      4.31605        -0.019348     -0.045019      0.017196
O	      4.28639      4.23607      6.21020         0.016456      0.027511     -0.045040
O	      6.38518      6.21917      6.40228        -0.015637     -0.022367     -0.044946
O	      6.39705      4.37335      8.49343         0.003039      0.039331     -0.029407
O	      8.47154      6.30485      8.40303        -0.038757     -0.022722      0.026972
O	      2.31085      6.33686      6.20667         0.026194     -0.020690     -0.020576
O	      4.27204      8.23762      6.19673         0.020492      0.016154      0.124291
O	      4.37998      6.23937      8.19453         0.037670     -0.021904      0.014148
O	      6.42296      8.16442      8.39498         0.001878     -0.225335      0.052557
O	      6.63336      6.32032     10.38667        -0.086876     -0.040931      0.111935
O	      8.79260      8.30185     10.53139         0.026106      0.036417     -0.083812
