# total energy = -231.70386929 eV
 
CRYSTAL
PRIMVEC
-0.005999 6.257436 6.281150 
6.355205 0.008503 6.266715 
4.257147 4.182259 -0.014531 
PRIMCOORD
36 1
Li	      8.45590      8.39969     12.35323         0.007646     -0.024958     -0.104479
Li	      4.25657      2.06576      2.15716        -0.006184     -0.008304     -0.004902
Li	      4.27766      0.04408      4.21741         0.046411      0.001882      0.028937
Li	      6.38107      8.29829     10.50873         0.016626      0.006954      0.029212
Li	     10.54269      6.30930      8.34304        -0.031866      0.002667      0.012904
Li	      8.42370      4.25588      8.33778        -0.006831      0.027311      0.027575
Li	      8.53802      6.19821      6.23790         0.053500     -0.012504      0.006195
Li	     10.57510      8.34982     10.43193         0.003376      0.011449     -0.003636
Li	      8.46176      6.34261     10.39535        -0.004359     -0.009346      0.022346
Sc	      4.20180      4.08538      4.10498        -0.028985      0.001005     -0.072600
V	      2.11716      0.13646      2.10403        -0.071085      0.152416     -0.006308
V	      4.21378      6.34589      6.20328        -0.084721      0.075441     -0.102995
V	      6.35097      8.35352      6.24776        -0.087919     -0.044384     -0.074705
Cr	      6.28391      0.05679      6.21761        -0.040945      0.002457     -0.049340
Fe	      6.56695      4.03937      6.25722        -0.077535      0.078660     -0.029680
Fe	      8.53155      8.30771      8.54412         0.043600     -0.055263     -0.116569
Fe	      6.43634      6.24844      8.52541        -0.053913      0.020506     -0.033086
Ni	      2.14494      2.08944      4.20387        -0.098035     -0.050742     -0.017362
O	      2.15366      1.89431      2.11645         0.009978     -0.086572     -0.049038
O	      4.38763      4.17551      1.99498         0.054095     -0.015236      0.013400
O	      4.16274      2.10658      4.15675         0.207783     -0.005801      0.048514
O	      6.35084      4.17219      4.15090        -0.028380     -0.135293     -0.032329
O	      6.35185      2.11602      6.27134        -0.020404     -0.171697      0.005284
O	      8.50027      4.15460      6.29880         0.148497      0.027225     -0.004174
O	      2.14582      4.14336      4.26907         0.024931      0.224087     -0.053814
O	      4.30690      6.24416      4.24939        -0.088877     -0.036218      0.006064
O	      4.17967      4.29530      6.24468         0.051863     -0.089452      0.095238
O	      6.28171      6.23473      6.33992         0.059816     -0.048873      0.020368
O	      6.30602      4.24436      8.25120        -0.004747     -0.045126      0.061227
O	      8.36586      6.33511      8.35603         0.095889     -0.050889     -0.044846
O	      2.04737      6.25283      6.37965        -0.003380      0.069981      0.034339
O	      4.36651      8.37920      6.27351        -0.046966      0.032774      0.053589
O	      4.15637      6.21173      8.25343         0.031045      0.056070      0.071929
O	      6.44149      8.39926      8.28306        -0.064839      0.063026      0.060724
O	      6.32884      6.28282     10.45243         0.018485     -0.001921      0.095444
O	      8.52115      8.35802     10.37936        -0.023570      0.038670      0.106574
