# total energy = -235.61207635 eV
 
CRYSTAL
PRIMVEC
0.010294 6.310706 6.309771 
6.411032 0.003299 6.316836 
4.281054 4.218695 -0.004582 
PRIMCOORD
36 1
Li	      2.14449      2.03517      0.08663        -0.011795     -0.022430      0.032735
Li	      2.06148      0.09804      2.10304        -0.040010     -0.006139      0.001347
Li	      6.38418      2.18105      4.24140        -0.029478      0.032294     -0.004759
Li	      4.38348      6.24562      2.18556         0.051957     -0.022361      0.005522
Li	      2.21765      4.12654      2.18413         0.005873     -0.023340      0.049951
Li	      6.32185      6.30083      4.11007        -0.035236     -0.022629     -0.021427
Li	      4.29407      4.36738      4.08656         0.027827      0.071089     -0.031392
Li	      2.29189      6.26942      4.24651         0.057955     -0.018853     -0.047825
Li	      4.17992      6.34744      6.21544        -0.050159     -0.019507      0.000181
Sc	      6.46170      6.33592      8.50526         0.073584      0.031380     -0.013135
V	      8.47381      4.20877      4.19841        -0.024625      0.007061      0.031581
V	      2.14609      4.26390      6.23518         0.015611      0.027032     -0.092621
V	      8.54534      8.45837      8.43961        -0.019980     -0.027789     -0.012832
Cr	      6.43364      4.19304      6.29876         0.014517      0.007320     -0.013407
Fe	      0.08952      0.06230      0.04049        -0.085179      0.005153      0.006320
Fe	      4.08405      2.18888      2.13993         0.100579     -0.037869     -0.007208
Fe	      4.31943      2.09952      6.27695        -0.022620      0.033039     -0.039869
Fe	      4.33117      8.23466      4.21373        -0.021087      0.057254      0.009365
O	      2.23347      2.09288      2.08944        -0.113470     -0.021339     -0.004471
O	      4.26655      4.15415      2.00653         0.006741      0.009619      0.064437
O	      4.31490      1.99886      4.18896         0.035342      0.013877      0.039887
O	      6.52735      4.17192      4.34019        -0.010822      0.013840      0.045623
O	      6.33711      2.11430      6.30832         0.022033      0.103709      0.005537
O	      8.49902      4.30113      6.28688        -0.006369     -0.042138     -0.001091
O	      2.03715      4.20458      4.28384         0.009618      0.010233      0.002032
O	      4.27640      6.37384      4.22248        -0.016784     -0.109595     -0.003110
O	      4.35163      4.15089      6.36784         0.020570      0.046748      0.017158
O	      6.53523      6.30344      6.35400         0.010969     -0.042876      0.039863
O	      6.36461      4.24035      8.40047        -0.009415      0.053506     -0.067537
O	      8.51944      6.43146      8.33524        -0.049614      0.036523      0.038077
O	      2.05244      6.24021      6.28616         0.065354     -0.023431     -0.029462
O	      4.33241      8.50399      6.30792         0.003992     -0.062369      0.017657
O	      4.31142      6.31433      8.41101         0.071658      0.001379      0.001444
O	      6.44166      8.40340      8.29872        -0.008301     -0.024776      0.044307
O	      6.30574      6.25668     10.58787        -0.013781     -0.023203     -0.050801
O	      8.64908      8.48269     10.43080        -0.025457     -0.010410     -0.012078
