# total energy = -224.92937531 eV
 
CRYSTAL
PRIMVEC
0.041459 6.225418 6.363991 
6.251342 0.042530 6.362843 
4.182990 4.164931 0.012827 
PRIMCOORD
36 1
Li	      4.14790      2.07528      2.14762        -0.008087     -0.019689      0.030898
Li	      4.22687      6.22826     10.55317         0.021594      0.040466     -0.079067
Li	      8.31126      4.20090      8.49992        -0.032171      0.029114      0.030005
Li	      6.27787      6.23135      4.29496         0.039042     -0.016231      0.103499
Li	      6.22263      4.27865      6.45364        -0.114929      0.095207      0.111053
Li	      8.34537      6.31558     10.48036        -0.035656     -0.025136     -0.145369
Li	      4.32980      6.20858      6.42309         0.064337     -0.010755      0.066777
Li	      4.24744      4.18409      8.50331         0.000119      0.045845     -0.041816
Li	      6.21710      6.21914      8.48024        -0.045428     -0.036028      0.005093
Sc	      8.27172      6.23315      6.46654        -0.146958      0.116731     -0.010283
Ti	      4.09115      4.26411      4.24912        -0.221917     -0.034941      0.216601
Cr	      2.20863      6.23870      8.49276         0.378637     -0.309888     -0.120225
Cr	      6.33640      8.30978     10.57239        -0.121320     -0.101396     -0.166055
Cr	      6.28455      4.19081     10.55500         0.198093      0.042637      0.069075
Co	      6.28382      6.24293     12.67494         0.057528     -0.187330     -0.005480
Cu	      2.15365      8.30581      6.37097         0.105937     -0.066304     -0.015483
Ni	      6.24718      2.15305      8.49493        -0.000301      0.045561     -0.028547
Ni	      6.29291      8.29477      6.40856         0.169366     -0.183973      0.091055
O	      2.00676      1.94252      2.00442         0.110516      0.131454      0.015780
O	      4.27849      4.22913      2.22878         0.015219     -0.137070      0.098546
O	      4.27216      2.24207      4.25402         0.035287      0.056400      0.066872
O	      6.19943      4.10899      4.16017        -0.002247      0.093450     -0.046351
O	      6.25833      1.97997      6.26313         0.203666     -0.029153     -0.034895
O	      8.52254      4.15533      6.40166         0.152091     -0.107855     -0.011011
O	      2.15368      4.14811      4.24422         0.185567      0.015744     -0.089111
O	      4.21265      6.22750      4.24882         0.009706     -0.120424      0.061341
O	      4.17562      4.18541      6.20669         0.175294     -0.017795     -0.224201
O	      6.28814      6.27969      6.41861         0.116602     -0.213375     -0.005395
O	      6.28272      4.12965      8.60671         0.002200      0.172191     -0.078927
O	      8.46205      6.31150      8.46339        -0.164835      0.003343     -0.031798
O	      1.96299      6.17824      6.49506        -0.233081      0.345944      0.111303
O	      4.27786      8.43253      6.25509        -0.479235      0.216144     -0.059218
O	      4.02066      6.28834      8.46604        -0.331975     -0.029419      0.027065
O	      6.27987      8.47795      8.56113         0.003974      0.122300      0.146190
O	      6.30786      6.24798     10.60178        -0.024122      0.071649      0.013775
O	      8.41730      8.34045     10.74706        -0.082513      0.002585     -0.071692
