# total energy = -224.75760059 eV
 
CRYSTAL
PRIMVEC
-0.009719 6.270682 6.291402 
6.197400 -0.034815 6.316320 
4.102051 4.167355 0.006387 
PRIMCOORD
36 1
Li	      6.13517      0.08765      6.25897        -0.045037      0.002009      0.097639
Li	      8.14874      2.14346      6.26912         0.015075      0.045071      0.075005
Li	      8.25194      4.14511      4.35239        -0.071351      0.049789      0.012222
Li	      6.21269      2.01278      4.32260        -0.046691      0.103400      0.004582
Li	      8.18155      4.20034      8.26125         0.036634      0.004442      0.051440
Li	      4.12916      2.03060      6.24212         0.013504     -0.006248      0.005434
Li	      2.18994      4.21468      6.28100         0.001091      0.001895      0.020554
Li	      4.13177      6.12338      6.29923        -0.019584      0.032187     -0.033038
Li	      6.27746      6.16505      8.36390         0.057431      0.017730     -0.054810
Sc	      0.00092      4.29511      4.31594         0.192124     -0.301534      0.110444
Ti	      4.20014      8.23723      8.27930         0.122787      0.024316     -0.484371
Cr	      2.02591      6.28098      8.26359         0.093225     -0.365835      0.179974
Cr	     10.22799      6.24950      8.40702         0.477864     -0.225157      0.281486
Cr	      6.20804      6.18925      4.24578        -0.040101      0.013465     -0.228540
Co	      4.12550      4.12724      4.19536        -0.041541      0.069094     -0.106891
Cu	      6.20638      4.13585      6.30194        -0.013513     -0.027598     -0.000244
Cu	      8.17178      6.31670     10.63661         0.305423      0.048353      0.020423
Ni	      8.21140      8.33711      8.45550        -0.149134      0.025151     -0.157063
O	      8.06583      4.18024      6.30775         0.172030     -0.014407     -0.002706
O	      2.06052      2.00285      2.16033         0.070498      0.178319      0.013157
O	      4.13075      4.15969      2.18073        -0.194615      0.012195      0.012881
O	      4.08458      2.20148      4.04487         0.076944     -0.060729      0.015253
O	      6.04360      4.20496      3.97779        -0.005140     -0.078183      0.070349
O	      6.16289      2.20565      6.47706        -0.087552     -0.037381     -0.381021
O	      2.16605      4.02237      4.28714        -0.081396      0.366839      0.054952
O	      4.15066      6.12894      4.14837        -0.108590     -0.016060      0.175102
O	      4.29537      4.10853      6.16452        -0.121479      0.004625     -0.050679
O	      6.19789      6.03895      6.19171        -0.019707      0.016216      0.130625
O	      6.14951      4.04286      8.57289         0.136477      0.204476      0.146384
O	      8.29917      6.28007      8.63894        -0.464840     -0.064380     -0.166046
O	      2.03858      6.24116      6.28397         0.058217      0.126826     -0.166990
O	      4.06554      8.36545      6.42764         0.024785     -0.013033      0.232652
O	      4.05473      6.34989      8.37869         0.090650      0.030047      0.008840
O	      6.10830      8.39458      8.32647        -0.215296      0.017267     -0.017804
O	      6.21551      6.23837     10.56243        -0.107886      0.178463     -0.033212
O	      8.24272      8.37599     10.50910        -0.111306     -0.361631      0.164020
