# total energy = -224.14292895 eV
 
CRYSTAL
PRIMVEC
0.023261 6.201985 6.456747 
6.101953 -0.071214 6.552193 
4.049383 4.178579 -0.028989 
PRIMCOORD
36 1
Li	      4.04216      4.14000      0.16818        -0.038681     -0.012388     -0.013342
Li	      2.08762      2.03462      0.16699         0.003457     -0.010570     -0.055042
Li	      1.88063      0.05652      2.06519         0.093162     -0.085379     -0.028349
Li	      4.05089      8.40143      8.44614         0.120428     -0.038727     -0.060322
Li	      6.04312      2.04008      4.44497        -0.032498      0.010898     -0.033899
Li	      4.14081      6.10014      2.07279        -0.119927      0.025090      0.051351
Li	      4.11679      4.09039      4.11407         0.072849      0.019330      0.042182
Li	      4.09895      8.27186      4.46686        -0.040498     -0.028425      0.035103
Li	      4.04690      6.37780      6.40614         0.065404     -0.019711     -0.079756
Sc	      2.11347      6.18665      4.39614         0.333671      0.211599     -0.167224
Ti	      4.04011      4.14805      8.68099        -0.260714      0.096421      0.402289
Cr	      4.09162     -0.03806      4.39352         0.002771     -0.033772     -0.168655
Cr	      6.08315      4.07399      6.45543         0.017491      0.165426      0.204228
Cr	      6.11546      6.19233      8.63642        -0.055415      0.091334      0.189803
Co	      4.08996      2.00216      6.51510        -0.099608      0.074407     -0.024959
Cu	      2.10889      4.02314      2.19982        -0.132171      0.249099     -0.070282
Cu	      6.04654      6.20076      4.24040        -0.047239      0.137780     -0.087883
Cu	      1.95876      4.17237      6.43430         0.197928     -0.062304      0.138903
O	      2.05047      4.11176      4.36685         0.018847     -0.300134     -0.137110
O	      4.11834      8.30326      6.45882        -0.190328      0.058099     -0.014671
O	      2.05342      2.11358      2.21970        -0.028772     -0.156240      0.147198
O	      3.97971      4.14391      2.16457         0.107762      0.019669     -0.080795
O	      3.91708      1.96874      4.58078         0.743004     -0.086984      0.153132
O	      6.14237      4.16817      4.47885        -0.123325     -0.054434     -0.358114
O	      5.99658      2.12756      6.47586         0.037623     -0.191101     -0.065218
O	      8.08073      4.23757      6.34860         0.131667     -0.030327      0.219472
O	      4.16876      6.20954      4.31376        -0.940739      0.030466      0.004601
O	      4.06780      3.96419      6.66387        -0.035503     -0.055645     -0.026940
O	      6.17872      6.17425      6.62504        -0.018459     -0.057501     -0.222575
O	      6.08614      4.18133      8.49278         0.111139     -0.059488      0.088467
O	      8.11489      6.23205      8.57821         0.118223     -0.029739     -0.032532
O	      2.06701      6.16023      6.39231        -0.092843      0.100293      0.228773
O	      4.11310      6.06828      8.76133        -0.087931     -0.089673     -0.000454
O	      6.19354      8.20973      8.61515         0.094376      0.028712     -0.004582
O	      6.10811      6.18208     10.63191         0.026782      0.009622      0.019534
O	      8.17306      8.25822     10.61172         0.048067      0.074297     -0.192330
