# total energy = -225.87007624 eV
 
CRYSTAL
PRIMVEC
0.020756 6.224083 6.232039 
6.248158 -0.004158 6.256930 
4.188842 4.189192 -0.025946 
PRIMCOORD
36 1
Li	      8.31027      2.15517      6.18199        -0.015748      0.034402     -0.055195
Li	      4.22828      8.28420      8.34957         0.027466     -0.062035      0.055724
Li	      4.20073      6.21975     10.40569         0.034407      0.018719     -0.012654
Li	      6.28662      8.28510     10.41312        -0.015391     -0.034297      0.022646
Li	      4.19310      4.14895      4.18632        -0.007331     -0.024219      0.043931
Li	      6.26616      4.15188      6.19632        -0.027522      0.004872     -0.033498
Li	      8.36099      6.25551     10.40942         0.012130      0.005523     -0.013284
Li	      4.22891      6.21481      6.22565         0.055330     -0.018393     -0.005619
Li	      6.20640      6.27358      8.32976        -0.063023      0.026195     -0.027552
Sc	      4.17968      2.10015      6.19774         0.004929      0.042451     -0.058691
Ti	      6.39215     10.35409      8.34505         0.456547     -0.166598      0.163453
Cr	      6.25716      2.07358      8.32729        -0.039899      0.140054     -0.022001
Cr	      6.29413      6.25308      4.14610         0.016791      0.009303      0.077811
Cr	     10.36957      8.41199     10.41690        -0.067155      0.007714     -0.054463
Co	      6.25592      8.34654      6.20560        -0.013935     -0.056913      0.016816
Ni	      4.21001     10.39643      6.20501         0.039184     -0.005686     -0.037562
Ni	      2.12229      4.17488      2.06019        -0.014780     -0.015399      0.099320
Ni	      4.17995      4.15026      8.32614        -0.024470      0.043125      0.003454
O	      2.04164      2.02059      2.12829        -0.003483     -0.104168      0.013206
O	      4.21773      4.27475      2.01933         0.142931     -0.046299      0.060439
O	      4.09825      2.08225      4.16486        -0.010217     -0.015190      0.063709
O	      6.24152      4.21820      4.02900         0.020842      0.012376     -0.160789
O	      6.27627      2.06660      6.32285        -0.048533      0.077060     -0.038478
O	      8.49074      4.16562      6.28718         0.008413      0.054836     -0.125466
O	      1.99013      4.08669      4.23643        -0.072686     -0.021069      0.069567
O	      4.27730      6.39680      4.05198         0.006781      0.030435      0.050670
O	      4.03768      4.18306      6.27239        -0.101993     -0.028144     -0.140491
O	      6.26023      6.36337      6.15441         0.075768      0.010496     -0.020768
O	      6.28869      4.10032      8.40625         0.001446      0.036387      0.041846
O	      8.44241      6.23830      8.32220         0.044249      0.026127     -0.028507
O	      1.95709      6.10610      6.31166         0.019445     -0.044219      0.014133
O	      4.29214      8.36271      6.11714         0.031189     -0.093144     -0.030171
O	      4.05934      6.22301      8.28945        -0.480465      0.082053     -0.006937
O	      6.27411      8.40368      8.18638        -0.111922      0.155140     -0.015093
O	      6.30504      6.06881     10.44798        -0.033024     -0.122018     -0.021489
O	      8.53109      8.29190     10.36681         0.153728      0.040521      0.111982
