# total energy = -226.22722968 eV
 
CRYSTAL
PRIMVEC
-0.002179 6.326554 6.150690 
6.141335 0.007333 6.141354 
4.110794 4.227859 -0.011391 
PRIMCOORD
36 1
Li	      6.16940      6.31470     12.17182         0.135100      0.034998      0.041589
Li	      6.15457      4.24562      2.09350        -0.020651      0.029471     -0.075303
Li	      6.13147      2.09610      4.23591         0.012443     -0.025508      0.030015
Li	      6.10235      6.37670      4.18502        -0.001437     -0.052049      0.022368
Li	      4.11564      4.38705      4.14505         0.051073      0.019183     -0.020834
Li	      6.15070      4.15225      6.02487        -0.028409     -0.058033     -0.016418
Li	      4.17401      8.40753      4.15033        -0.031278     -0.014585      0.003654
Li	      2.04290      6.23210      4.16926        -0.006413      0.078854      0.102163
Li	      6.19375      6.35060      8.22687        -0.006128      0.024408     -0.019036
Sc	      4.16561      2.18407      2.06584         0.042394      0.027022      0.030527
Ti	      4.11405      4.29868      8.21116        -0.085667      0.121975     -0.073934
Cr	      8.20867      4.20751      4.14056        -0.279170     -0.070701      0.100722
Cr	      4.10762      6.27870      2.08310         0.127495     -0.106685      0.040080
Cr	      8.13736      4.24229      8.23754        -0.014634     -0.074790     -0.063791
Co	      8.11032      8.37616     12.23238         0.345988      0.017919     -0.035221
Co	      2.05777      4.27887      6.06770        -0.068637     -0.100711     -0.035741
Cu	      4.07236      2.14321      6.07697         0.070979     -0.099735     -0.100047
Ni	      4.13182      6.38630      5.99641        -0.059563     -0.144619     -0.009966
O	      2.02037      2.18972      1.93123        -0.019670      0.037052     -0.092843
O	      3.99603      4.23337      2.09185        -0.022812      0.017043     -0.031203
O	      4.11970      1.95120      4.13634        -0.003236      0.044107     -0.092370
O	      6.32761      4.20918      4.10237         0.159332      0.011726     -0.036037
O	      6.17658      2.03168      6.22835        -0.181538     -0.041081     -0.027031
O	      8.16993      3.95371      6.15623        -0.041813      0.073402      0.002916
O	      2.04580      4.25937      4.08870        -0.014970      0.069870     -0.026051
O	      4.12525      6.34523      4.01319        -0.015199      0.012363     -0.251205
O	      4.00534      4.36750      6.23593        -0.076005     -0.090598      0.169504
O	      6.21413      6.59460      6.13115         0.120136      0.165372      0.145546
O	      6.06806      4.13173      8.14197        -0.086876     -0.010086      0.037430
O	      8.23223      6.33766      8.09761        -0.023504      0.011168      0.067753
O	      2.10976      6.39769      6.15257        -0.209597     -0.027010      0.056133
O	      4.16243      8.39520      6.16388         0.022333      0.275034     -0.000203
O	      4.12624      6.25705      8.26441         0.021877     -0.176870      0.120319
O	      6.24280      8.48657      8.03415         0.106960     -0.001627      0.065988
O	      5.93305      6.30432     10.22864         0.037965     -0.014073      0.015448
O	      8.14099      8.49458     10.18250         0.043134      0.037794     -0.044925
