# total energy = -92.30309642 eV
 
CRYSTAL
PRIMVEC
2.154610 4.311774 2.098231 
4.232731 -2.123751 -2.085803 
0.008095 4.326534 -4.233893 
PRIMCOORD
16 1
Li	      2.16369      2.27192     -0.04425         0.047921      0.056530     -0.119682
Li	      4.35217      2.27114     -2.22154        -0.172966      0.313634     -0.091105
Li	      0.04154      2.24937     -2.19305         0.132231      0.157312     -0.154025
Li	      2.17311      4.42541     -2.10289         0.162097     -0.018981      0.037555
Mn	      0.01700      0.12671     -0.12900         1.733662     -0.932396      1.395547
Mn	      2.23061      0.17770     -2.15832        -0.876842     -0.173488     -1.273289
Ni	      2.24323      2.34182     -4.24047        -0.158695     -0.800351      0.262235
Ni	      4.40546      4.47389     -4.30058        -0.049916     -0.535892      0.607065
O	      4.33516      4.47541     -2.09172        -0.248577      0.099090      0.546193
O	      4.39468      2.32976     -4.46226        -0.299778      0.737479      0.165177
O	      4.54148      2.30023     -0.00129        -0.797466      0.499354     -0.461144
O	      4.23694     -0.09437     -2.12834        -0.774754      1.313668      0.020633
O	      2.35067      4.43110      0.08905         0.398527     -0.146512     -0.933699
O	      2.21981      2.03096     -2.17499         0.457460      0.140715     -0.081249
O	      2.19627      6.88243     -2.19952         0.258995     -0.599879     -0.278824
O	      2.12141      4.45094     -4.46414         0.188100     -0.110285      0.358611
