# total energy = -226.90867426 eV
 
CRYSTAL
PRIMVEC
0.000440 6.232807 6.210315 
6.311238 0.022980 6.187566 
4.222814 4.155368 0.000153 
PRIMCOORD
36 1
Li	      6.35444     10.36333      8.30068         0.112344      0.085968      0.031120
Li	      6.45834      8.32379     10.23620        -0.020912      0.027541      0.033304
Li	      4.18614      6.15922      2.14356        -0.013699      0.021904     -0.126230
Li	      2.13894      4.21562      2.14502        -0.037020      0.043514     -0.094181
Li	      4.16296      4.31213      4.00748        -0.023220      0.021259     -0.012036
Li	      2.19635      6.21810      4.06942         0.043339     -0.025349     -0.074291
Li	      4.09923      6.27479      6.17268         0.019606      0.014276      0.035662
Li	      8.35441      8.36439      8.35045        -0.005074      0.004071     -0.107059
Li	      6.35495      6.24586      8.36104         0.011411     -0.015344     -0.083318
Sc	      4.29578      2.07541      2.15645        -0.219345     -0.410039      0.183070
Ti	      6.17154      4.09324      6.27299        -0.014818     -0.047059      0.209877
Cr	      0.00587      0.01958      0.01717        -0.120294      0.092092      0.136124
Cr	      6.25227      6.23972      4.07587         0.624728     -0.060264     -0.000342
Cr	      2.16625      4.18648      6.21780         0.012907     -0.172925      0.098719
Co	      8.42169     10.37603     10.35085        -0.071898      0.229532      0.000545
Co	      8.41605      6.24552      6.24408        -0.121361     -0.087332     -0.623975
Cu	      2.11535      8.24061      6.26301        -0.004974      0.015568      0.184287
Cu	      6.27927      4.16292     10.24404         0.116100      0.050236      0.043802
O	      8.47052      8.45011     10.48655         0.232019     -0.130169     -0.058318
O	      2.16116      2.08672      2.06267        -0.093491     -0.023414     -0.238880
O	      4.22042      4.14649      1.99250         0.025671      0.132212      0.056263
O	      4.12653      1.98390      4.25093         0.032535     -0.098731     -0.073928
O	      6.44664      4.22944      4.22971        -0.035294     -0.147372      0.031265
O	      6.18535      2.10684      6.13693        -0.464932      0.152080      0.038812
O	      8.40153      4.19254      6.09667         0.068044      0.176698      0.087407
O	      2.07006      4.09442      4.20467        -0.197045      0.102052     -0.185133
O	      4.31053      6.31258      4.13609        -0.527330      0.241703     -0.063588
O	      4.25064      4.13896      6.13008         0.010014     -0.247557     -0.052444
O	      6.40043      6.22455      6.09265         0.262500     -0.011000      0.311901
O	      6.35342      4.19233      8.04756        -0.079791     -0.021140      0.096801
O	      8.42013      6.26066      8.03320         0.008040     -0.012737      0.640698
O	      1.99911      6.18517      6.13232         0.164241      0.250503      0.064828
O	      4.38208      8.38847      6.29035         0.089897     -0.029346     -0.355943
O	      4.21372      6.22914      8.43352         0.072605      0.041661      0.002996
O	      6.34521      8.30345      8.19697         0.140860      0.024056      0.051919
O	      6.14571      6.17819     10.41786         0.003637     -0.187145     -0.189734
