# total energy = -227.14615697 eV
 
CRYSTAL
PRIMVEC
0.039892 6.251724 6.265430 
6.229026 0.024235 6.281193 
4.154793 4.180346 0.014140 
PRIMCOORD
36 1
Li	      4.22009      4.14308      0.14317         0.015105     -0.004931      0.033565
Li	      2.09171      2.04206      0.10062         0.001331     -0.045535      0.036398
Li	      2.04357      6.23990      8.26246        -0.011057      0.031128      0.026576
Li	      4.14854      2.16753      2.10871         0.009032      0.014108      0.020245
Li	      6.11608      2.14612      4.14513        -0.032136      0.028828     -0.010943
Li	      2.19210      4.08620      2.01543         0.006358     -0.015541      0.047254
Li	      4.20665      4.03024      4.10248         0.091673     -0.025686     -0.004153
Li	      4.16945      2.10337      6.20876         0.032978      0.058888     -0.038519
Li	      4.12027      6.25651      6.41913        -0.016839      0.023078     -0.041318
Sc	      4.16221      6.13238      2.01323         0.061333     -0.114906      0.093832
Ti	      4.15298      8.38556      4.36852         0.062580     -0.027597      0.313936
Cr	      2.14136      2.09270      4.15105         0.053607     -0.261886      0.048884
Cr	      6.24189      4.18634      6.26367        -0.270022     -0.072426     -0.288037
Cr	      2.09690      6.27258      4.24584        -0.146325     -0.027398     -0.073739
Co	      4.13180      0.05453      4.18865         0.490900     -0.148726     -0.083922
Co	      6.26111      6.28234      8.36303         0.070618      0.051619      0.062172
Ni	      2.16792      4.20423      6.34559        -0.016565      0.017770     -0.126999
Ni	      4.14576      4.22110      8.33558         0.008507     -0.120188      0.003429
O	      2.04254      2.08584      2.20821         0.033812      0.033767     -0.055907
O	      4.15088      4.20161      2.09493        -0.048018      0.016714     -0.051183
O	      4.06940      1.95712      4.18633         0.015737      0.875373      0.000716
O	      6.35031      4.27887      4.26744        -1.527625      0.094413      0.201830
O	      6.22270      2.28655      6.25148         0.049644      0.132511      0.025972
O	      8.13537      4.22284      6.12962         0.107194     -0.022989      0.020216
O	      2.01213      4.19397      4.23326        -0.078913     -0.056106     -0.086586
O	      4.15193      6.42303      4.15452         0.107251      0.139245      0.024299
O	      4.30922      4.21083      6.26499         0.178896      0.022339     -0.002747
O	      6.22745      6.21518      6.33537         0.069008     -0.158278     -0.056340
O	      6.25377      4.28262      8.31702         0.069443      0.073867     -0.011255
O	      8.24667      6.30626      8.48059        -0.103773     -0.038596     -0.088446
O	      2.11666      6.22851      6.17445         0.003661      0.118856      0.112678
O	      4.18852      8.39419      6.16309        -0.098903     -0.019307     -0.285085
O	      4.33969      6.24082      8.52185         0.040176      0.166260      0.028781
O	      6.30292      8.19794      8.34428        -0.164828     -0.127694      0.091108
O	      6.25679      6.21863     10.33287         0.826394     -0.221663      0.020998
O	      8.44039      8.37524     10.45669         0.109765     -0.389311      0.092290
