# total energy = -228.89901029 eV
 
CRYSTAL
PRIMVEC
0.028091 6.241295 6.328601 
6.284872 0.034307 6.321173 
4.211929 4.178040 0.001532 
PRIMCOORD
36 1
Li	      8.42792      8.36088     12.55708         0.074840     -0.020041     -0.048068
Li	      8.39174      4.21625      4.24711         0.110145     -0.029429     -0.019198
Li	      6.33544      6.30899      4.38063        -0.103802      0.105807     -0.120340
Li	      4.27865      4.13917      4.43780        -0.097485      0.088142      0.018063
Li	      8.28478      6.26694      6.21905         0.105724      0.094858     -0.006878
Li	      2.14326      6.24202      4.37172         0.013236     -0.064349     -0.013337
Li	      6.29287      8.30370      6.26080        -0.008388      0.133287     -0.174683
Li	      4.31656      6.23017      6.30005        -0.090501     -0.042686     -0.124678
Li	      6.23233      6.34141      8.24972         0.019638     -0.054396      0.083511
Sc	      8.36437      4.22606      8.44188        -0.109896      0.000904      0.466974
Ti	     10.45197      6.31787      8.51229        -0.242892     -0.008791      1.056373
Cr	      6.33097      6.33374     12.58503        -0.038185     -0.332356     -0.282137
Cr	      2.15089      6.22771      8.39968         0.010981      0.229364     -0.104895
Cr	      4.24893      8.27588      8.42812         0.018501     -0.018453      0.065540
Co	      4.16835      4.21175      8.37277         0.217206     -0.113127     -0.339570
Co	      6.27712      2.11260      4.19889         0.159939     -0.599394      0.067514
Co	      4.21318      8.30617      4.32670        -0.043477      0.045430     -0.345590
Cu	      6.33961      4.26489      6.19473        -0.139344     -0.367301      0.297052
O	      6.33414      6.13571      6.30273        -0.027005      0.140281      0.079398
O	      2.11585      2.05056      2.17162         0.040842     -0.102305     -0.083553
O	      4.22520      4.19936      2.04659         0.116899     -0.022067     -0.087135
O	      4.32015      2.11286      4.06638        -0.010702     -0.027543     -0.131090
O	      6.29324      3.96996      4.08907         0.115407      0.266624     -0.108483
O	      6.34066      2.14235      6.47423         0.060085      0.162085     -0.109391
O	      8.43980      4.22568      6.37287        -0.213979     -0.057842      0.005009
O	      1.91537      4.19611      4.20706         0.106749     -0.083976      0.083048
O	      4.23824      6.24811      4.10117        -0.059220     -0.317590     -0.632634
O	      4.31037      4.16932      6.50274         0.325399      0.079072      0.215829
O	      6.30629      4.07819      8.54222         0.102340      0.333473      0.084500
O	      8.56030      6.27268      8.47378         0.168743      0.002431     -0.160535
O	      2.01309      6.28127      6.42910        -0.134383     -0.002374      0.157328
O	      4.18806      8.45741      6.34217         0.017704      0.242509      0.040321
O	      4.12200      6.31533      8.38381         0.003826      0.026490      0.010081
O	      6.26304      8.38394      8.37998        -0.084920      0.020611      0.044688
O	      6.32949      6.40097     10.64862        -0.009166      0.274353      0.011428
O	      8.51470      8.38218     10.35738        -0.374862      0.018302      0.105539
