# total energy = -232.65210877 eV
 
CRYSTAL
PRIMVEC
0.045419 6.322240 6.301378 
6.324403 0.036898 6.310037 
4.235956 4.240422 0.004774 
PRIMCOORD
36 1
Li	     10.46226      4.32263      6.28176        -0.070607     -0.010538      0.052764
Li	      8.50412      8.50655     12.53299         0.072470     -0.033601     -0.048230
Li	      8.59066     10.51542     10.59059         0.018223     -0.059029      0.120568
Li	      6.45018      8.37894     10.56978         0.048928      0.011613      0.048094
Li	      6.25682      2.19635      8.31675        -0.031328      0.058785     -0.109456
Li	      8.40243      4.35024      8.31501        -0.027406      0.027773     -0.030788
Li	      8.53767      6.27460      6.42729         0.018293      0.006550      0.006323
Li	     10.53564      8.55227     10.55102        -0.034993     -0.009953      0.137777
Li	      6.29085      8.51633      6.35184        -0.062451      0.036156     -0.001848
Sc	      4.22316      4.25355      4.19768        -0.012426     -0.126255      0.147128
Ti	      2.08574      2.21664      4.18162         0.321110      0.144270     -0.036962
Cr	      2.18213      6.29289      8.36244        -0.251225     -0.068817      0.027315
Cr	      4.28206      8.42309      8.37920         0.112023      0.195008     -0.099805
Cr	      6.48628      4.14508      6.33435        -0.042064     -0.211823     -0.019117
Co	      8.51911      8.44348      8.45463         0.034793     -0.118280      0.070262
Co	      8.31579      6.50439     10.50052        -0.182961      0.148844     -0.069269
Co	      4.25059      6.38896      6.29226         0.102108     -0.231876      0.219317
Co	      6.40947      6.32846      8.46827         0.085777      0.014744     -0.011692
O	      2.19550      2.01011      2.21617        -0.073711     -0.044795      0.188867
O	      4.34553      4.13203      2.08154         0.081641     -0.025702     -0.001159
O	      4.06956      2.17327      4.15275        -0.171807      0.040605     -0.012466
O	      6.32072      4.34785      4.16992        -0.016100      0.087638      0.014246
O	      6.27718      2.34883      6.28459         0.005780      0.211096      0.008932
O	      8.29482      4.28474      6.30189        -0.116275      0.043776     -0.009072
O	      2.15248      4.11440      4.22930        -0.048621     -0.168538     -0.074003
O	      4.33607      6.33777      4.14416        -0.153001      0.143604      0.855266
O	      4.37728      4.41037      6.30057        -0.001454      0.148886     -0.092729
O	      6.26909      6.24160      6.19557        -0.346057      0.039144     -0.075262
O	      6.35412      4.28741      8.25459         0.126483      0.058047      0.017650
O	      8.44606      6.38232      8.49968         0.021017     -0.021024      0.084277
O	      2.30816      6.34163      6.35236         0.396388     -0.026476     -0.113093
O	      4.27722      8.27372      6.42345        -0.037594     -0.142626     -0.138549
O	      4.21689      6.38442      8.44564         0.184174      0.033976     -1.064239
O	      6.31090      8.50323      8.40425         0.035364     -0.007390      0.106680
O	      6.46718      6.32809     10.57148         0.043641      0.014801      0.052031
O	      8.51821      8.39621     10.49551        -0.028133     -0.158593     -0.149758
