# total energy = -221.40252161 eV
 
CRYSTAL
PRIMVEC
0.008660 6.234087 6.356324 
6.253009 0.010921 6.354076 
4.153302 4.139228 0.022644 
PRIMCOORD
36 1
Li	      4.23775      8.27260      8.43703         0.070866     -0.127150     -0.061941
Li	      6.25905      8.28638     10.54513         0.036480     -0.047718     -0.086083
Li	      8.31316      4.17570      8.42358        -0.082281      0.008232     -0.086509
Li	      8.27788      6.19647      6.44431        -0.023287     -0.061998      0.068458
Li	      6.25393      4.21941      6.43217         0.036309      0.052538      0.113197
Li	     10.39923      8.31541     10.61829        -0.065934      0.005166     -0.015202
Li	      4.23906      6.24419      6.46139         0.059295      0.014993      0.123065
Li	      4.14552      4.20224      8.39420         0.052247      0.056737     -0.121693
Li	      6.22185      6.22055      8.41624        -0.118150     -0.027398     -0.037718
Sc	      8.22452      6.28720     10.57088        -0.066536      0.086330     -0.099711
Ti	      4.20363      4.04923      4.34436        -0.139455     -0.134985      1.003778
Cr	      2.11937      2.09115      0.04346        -0.171580      0.050131     -0.285118
Cr	      4.19917      6.24227     10.56267         0.085806     -0.062374      0.524770
Cr	      6.21337      2.18614      8.43202        -0.178617      0.478114     -0.112200
Cu	      6.22508      6.23949      4.32706        -0.071888      0.180967      0.140824
Ni	      4.12689      4.13590      0.05930        -0.130994      0.055607     -0.159530
Ni	      6.27064     10.32983      8.48594         0.633463     -0.711248     -0.018750
Ni	      6.19767      8.24378      6.46372         0.040871     -0.036700     -0.182706
O	      6.22933      6.26503      6.30665        -0.004246     -0.141169     -0.141970
O	      1.95420      1.99368      2.08952         0.096011      0.167332      0.187954
O	      4.23421      4.25576      2.20555         0.014234     -0.105936      0.111276
O	      4.13489      2.10171      4.21588         0.137758      0.292477     -0.057309
O	      6.23411      4.21408      4.24146        -0.202849     -0.302133     -0.255754
O	      6.34206      2.04876      6.48405        -0.060069      0.083212      0.102207
O	      8.36349      4.08665      6.25545        -0.067854      0.106116      0.160572
O	      2.20150      4.13076      4.25388         0.119451      0.150398     -0.103952
O	      4.15658      6.12071      4.13980        -0.119189     -0.077760      0.044417
O	      4.16729      4.16776      6.19130         0.067274     -0.053873     -0.735244
O	      6.29533      3.98488      8.48714         0.029033     -0.180257     -0.012551
O	      8.47461      6.20430      8.50333         0.065187     -0.052659      0.110745
O	      2.06919      6.26985      6.34935         0.076595     -0.049826      0.270585
O	      4.10829      8.35647      6.38646         0.126916     -0.073615      0.081421
O	      4.08679      6.22154      8.61091        -0.170257      0.180564     -0.497467
O	      6.26889      8.39459      8.45005        -0.159532      0.381875      0.201887
O	      6.19665      6.25379     10.57806         0.106794      0.018382     -0.111923
O	      8.31592      8.36184     10.72859        -0.021871     -0.122372     -0.061822
