# total energy = -221.16707505 eV
 
CRYSTAL
PRIMVEC
0.013787 6.280370 6.138807 
6.333289 -0.001569 6.154276 
4.218507 4.193496 0.002605 
PRIMCOORD
36 1
Li	      2.15659      8.36204      6.15736         0.049079     -0.040681     -0.033928
Li	      6.32884      4.18581      2.12527        -0.021990     -0.049517     -0.039172
Li	      4.21131      2.12422      2.12273         0.043292      0.056351     -0.047497
Li	      6.35306      8.36035     10.09173         0.062888     -0.045886     -0.117190
Li	      4.19899      4.19768      4.01785        -0.030797      0.072174      0.052047
Li	      6.32653      4.18169     10.18924        -0.052467      0.049144     -0.004321
Li	      8.47052      6.31585     10.15348         0.023634      0.043074      0.071973
Li	      8.38500      8.34041      8.27978        -0.094679     -0.007017     -0.000930
Li	      6.41489      6.30951      8.27278         0.036960      0.017011     -0.028380
Sc	      0.04905      6.26458      6.11654         0.136909     -0.081523     -0.167380
Ti	      6.27788      4.06038      6.15445        -0.085905     -0.134812     -0.030430
Cr	      4.26465      6.21152     10.06571         0.181701     -0.252042      0.101784
Cr	      6.35916      8.36285      6.17974        -0.005429      0.073504      0.125693
Cr	      4.19583      6.34080      6.14264        -0.210521      0.115801      0.105101
Cu	      2.12784      4.18491      2.13289        -0.009561     -0.001979      0.170219
Cu	      8.43020      6.23994      6.17942         0.103567      0.154148     -0.102866
Ni	      4.23080      6.28530      2.14376         0.019044      0.031236      0.055842
Ni	      2.10795      2.08711      4.07273        -0.085472     -0.011671      0.020993
O	      8.51288      6.20937      8.11558        -0.085636     -0.092193      0.090156
O	      2.04964      2.20151      2.07776         0.128995     -0.068171     -0.165150
O	      4.11486      4.22853      2.05320         0.116807     -0.103043      0.064097
O	      4.14981      1.89480      4.23618         0.019165      0.053767     -0.010129
O	      6.43245      4.20439      4.20614        -0.143422     -0.115012      0.060690
O	      6.36695      2.18064      6.14810         0.092360      0.132542     -0.022860
O	      8.37363      4.16232      6.12418        -0.106594     -0.053049     -0.108059
O	      2.13944      4.13531      4.15573         0.059881      0.104271      0.007075
O	      4.26058      6.31451      4.19276        -0.087424     -0.035080     -0.005810
O	      4.29292      4.28174      6.15058         0.062781      0.016076      0.011654
O	      6.20881      6.31115      6.15321        -0.008952     -0.110504      0.108788
O	      6.44529      4.18398      8.07255        -0.050654      0.082121     -0.088944
O	      2.14634      6.18346      6.11845         0.065390      0.102520      0.009245
O	      4.36442      8.35709      6.15739        -0.104803     -0.007963      0.002702
O	      4.21301      6.32167      8.23604        -0.057821      0.066935     -0.153833
O	      6.37229      8.38106      8.02321         0.026699      0.040014      0.135360
O	      6.20452      6.31916     10.24146        -0.032405     -0.024297     -0.061448
O	      8.43333      8.59438     10.24758         0.045382      0.023748     -0.005094
