# total energy = -221.89041262 eV
 
CRYSTAL
PRIMVEC
0.003951 6.145551 6.190995 
6.436952 0.007992 6.187152 
4.309432 4.112350 -0.012546 
PRIMCOORD
36 1
Li	      4.36171     10.19546      6.19044         0.047046      0.017706      0.044188
Li	      6.40744      4.12421      2.16289        -0.056196      0.057160     -0.007154
Li	      4.15354      0.06783      4.04647        -0.073794     -0.054830      0.006397
Li	      2.17669      4.11093      2.10680         0.036322      0.005006     -0.054324
Li	      2.25820      2.01801      4.05915        -0.001616      0.040178      0.036849
Li	      4.32189      4.07621      4.09739        -0.001852      0.002906     -0.009536
Li	      0.10789      4.13707      4.07031         0.056871     -0.059226      0.006969
Li	      6.38506      8.23655      6.17646        -0.018269     -0.050359      0.000438
Li	      4.37345      4.11010      8.32382         0.042386     -0.029303      0.017925
Sc	      8.64663      2.16822      6.19905        -0.062516      0.116697      0.000070
Ti	      4.29020      6.06978      6.26024         0.091328     -0.206536      0.068953
Cr	      6.42048      8.18958     10.27428         0.041294      0.125947      0.234121
Cr	      4.38012      6.13226      2.14124        -0.078909      0.101963     -0.049780
Cr	      2.17775      6.04206      4.04259        -0.075979      0.085497     -0.080940
Cu	      4.30685      2.15298      2.12440        -0.173392      0.068582     -0.021932
Cu	      6.46122      4.13201      6.15642         0.010325     -0.111199     -0.075922
Cu	      6.42269      6.09993      8.26390        -0.037767      0.155221      0.153195
Ni	      4.27117      2.08406      6.17973        -0.036567      0.030790      0.064642
O	      6.44950      4.08148      8.17007         0.036068     -0.002737      0.006052
O	      6.31057      8.11820      8.32532         0.105278     -0.023525     -0.144982
O	      2.06545      2.05652      2.06853         0.123929     -0.004251     -0.040507
O	      4.27859      4.19064      1.95377         0.054990     -0.353304     -0.048579
O	      4.39945      2.05818      4.09541        -0.053674     -0.078593      0.056640
O	      6.44451      4.02990      4.18810        -0.031694      0.001712     -0.134913
O	      6.43692      2.09893      6.20047         0.030604     -0.129910     -0.010170
O	      8.48935      4.20473      6.14655         0.122876     -0.155581     -0.048566
O	      2.14336      4.25288      4.15349         0.026051      0.032825     -0.019377
O	      4.20815      6.17425      4.11838        -0.040786      0.034041      0.231474
O	      4.37264      4.14607      6.20547        -0.133805      0.306313      0.023032
O	      6.38147      6.12893      6.24358        -0.128485      0.155666     -0.149741
O	      8.79684      6.19291      8.32721        -0.022257      0.007475      0.140530
O	      2.31405      6.16200      6.02977         0.051426      0.008055      0.037899
O	      4.27753      8.12635      6.25695        -0.006018     -0.078623     -0.169202
O	      4.14053      6.15430      8.11540        -0.013322      0.083093     -0.171857
O	      6.59287      6.16093     10.22548         0.099102     -0.091503      0.126472
O	      8.44865      8.08391     10.32227         0.071001     -0.007357     -0.018365
