# total energy = -222.63462164 eV
 
CRYSTAL
PRIMVEC
0.015671 6.227996 6.467945 
6.190804 0.012405 6.471380 
4.119150 4.145894 0.016280 
PRIMCOORD
36 1
Li	      6.24030      6.18989     12.75638         0.009587      0.064688     -0.098991
Li	      4.27597      6.23513     10.65467        -0.044526      0.031918     -0.069768
Li	      6.16870      8.24042     10.67263        -0.002970     -0.001427      0.025668
Li	     10.22717      6.31757      8.70258        -0.033796     -0.010943     -0.017864
Li	      6.18918      4.14112      6.54073        -0.028569      0.026089      0.003248
Li	      8.14713      6.25520     10.65616         0.046953      0.028338      0.003608
Li	      6.16688      8.32069      6.56635         0.038412     -0.006529      0.050129
Li	      8.27570      8.21197      8.76198        -0.013565      0.000325      0.026511
Li	      6.27857      6.20642      8.81748        -0.068609      0.059251      0.005061
Sc	      4.16983      6.18056      6.52915         0.051597     -0.181878     -0.020977
Ti	      8.10980      2.12869      6.34395        -0.496244     -0.083651     -0.466178
Cr	      8.22707      4.20086      8.64983         0.144519      0.346166     -0.185330
Cr	      2.09375      2.07520      4.29479         0.099121     -0.623855      0.148938
Cr	      4.15700      2.08563      6.49525         0.020235      0.040185     -0.074282
Cu	      6.16956      4.12568      2.19360         0.018441     -0.061570      0.052909
Cu	      4.21294      8.29120      8.63007         0.166006     -0.061088     -0.055890
Cu	      4.13910      4.14786      4.33025        -0.005259      0.067025      0.096715
Cu	      6.18689      4.23686     10.74990        -0.000243     -0.172940      0.082338
O	      6.27671      4.16683      8.78475        -0.070885     -0.123050     -0.072118
O	      6.14315      8.39228      8.61724        -0.136566     -0.184497     -0.029916
O	      6.21819      6.16748     10.77897         0.013688      0.036421     -0.003900
O	      2.15216      2.11727      2.18702         0.166729      0.179807     -0.032408
O	      4.12512      4.07718      2.33172        -0.353832     -0.216281      0.033330
O	      4.08047      2.10354      4.48387        -0.094949     -0.215404     -0.048689
O	      6.12080      4.22445      4.18755         0.153544      0.355878      0.134493
O	      6.22489      2.10584      6.46378         0.363977      0.021239      0.065035
O	      8.24228      4.11962      6.63399        -0.002865     -0.095714      0.082156
O	      2.08180      4.10508      4.21745         0.116810      0.091059      0.049088
O	      4.18953      6.22640      4.35591         0.007645      0.278714     -0.106577
O	      4.13618      4.10292      6.36679        -0.036421     -0.006458      0.100297
O	      6.24872      6.20980      6.32913        -0.029813      0.044243      0.025096
O	      8.27006      6.17486      8.50307         0.032787     -0.139740      0.032714
O	      2.06733      6.38016      6.62785        -0.017958      0.157300     -0.257088
O	      4.03280      8.27561      6.31257         0.072241      0.138552      0.125802
O	      4.07532      6.28752      8.59891         0.130791      0.218948      0.038551
O	      8.26868      8.31774     10.94847        -0.216014     -0.001123      0.358285
