# total energy = -229.22370015 eV
 
CRYSTAL
PRIMVEC
0.006344 6.318955 6.321696 
6.232262 -0.019952 6.347205 
4.137967 4.213179 0.003442 
PRIMCOORD
36 1
Li	      6.26541      0.01715      6.34969         0.003928      0.032024      0.110523
Li	      8.24352      2.04869      6.35104        -0.006803     -0.049126      0.076652
Li	      6.11254      4.29614      2.18643        -0.031659      0.026992     -0.044592
Li	      6.26158      2.13864      4.25557        -0.038506     -0.024617      0.005534
Li	      0.10969      2.01668      2.12208         0.047236     -0.044237      0.011233
Li	      6.21426      6.19569      4.20414        -0.000681     -0.025317     -0.017614
Li	      4.19921      4.22792      4.16861         0.012020      0.004227     -0.038850
Li	      6.24862      4.17509      6.24850         0.061939     -0.046699      0.052770
Li	      6.22613      4.23815     10.57448        -0.002493     -0.035866      0.004020
Sc	      2.07735      4.16202      2.16734         0.004549     -0.059950      0.019710
Ti	      4.07523      6.32151      6.17148        -0.316802      0.214194     -0.455770
Cr	      4.13481      2.12153      2.15443        -0.009727      0.032618      0.078345
Cr	      4.26801      2.09883      6.20384         0.298878      0.002059      0.053474
Cr	      6.21624      6.30323      8.43381         0.022427     -0.031824      0.055373
Fe	      8.31765      8.41210      8.50493        -0.000145     -0.104522     -0.022656
Co	      8.24457      4.13202      4.30674        -0.292664      0.068578      0.260003
Cu	      8.21187      6.32998     10.63031        -0.046178      0.069599     -0.032652
Ni	      2.07309      4.22146      6.27269        -0.054094      0.023918     -0.058688
O	      2.14135      2.14975      2.12727         0.044168      0.029470      0.078131
O	      4.13484      4.09011      2.14853        -0.047914     -0.033153     -0.005211
O	      4.14000      2.07597      4.30359         0.028988      0.041105     -0.101996
O	      6.45215      4.17089      4.23795        -0.094064     -0.016931     -0.193573
O	      6.05166      2.10331      6.35940        -0.113310      0.043779     -0.056848
O	      8.31586      4.34297      6.31640         0.161456      0.024933      0.087798
O	      2.03931      4.38994      4.22038        -0.052202     -0.043577     -0.054317
O	      4.16001      6.31851      4.33502        -0.000094     -0.017382      0.493482
O	      4.15695      4.24569      6.39402         0.099491      0.025941     -0.019824
O	      6.22570      6.34312      6.39129        -0.003741     -0.087166     -0.053242
O	      6.16586      4.27678      8.44931         0.058529      0.100205     -0.058313
O	      8.22398      6.36419      8.23114        -0.081749     -0.024226     -0.175004
O	      2.20700      6.29155      6.42422         0.304531      0.073264      0.112203
O	      4.16474      8.26808      6.46330        -0.103483     -0.241403      0.021652
O	      4.21506      6.29526      8.43945         0.100301      0.040994     -0.138067
O	      6.21816      8.31719      8.40667        -0.016360     -0.049289      0.056094
O	      6.12628      6.30912     10.45407         0.047114     -0.030900     -0.125955
O	      8.28386      8.32658     10.47446         0.017115      0.112284      0.076174
