# total energy = -92.01027181 eV
 
CRYSTAL
PRIMVEC
2.165069 4.332705 2.108417 
4.253278 -2.134061 -2.095928 
0.008134 4.347536 -4.254446 
PRIMCOORD
16 1
Li	      2.18475      2.29403     -0.04468         0.050669      0.055027     -0.129604
Li	      4.39453      2.29324     -2.24316        -0.192989      0.356493     -0.110196
Li	      0.04195      2.27127     -2.21440         0.143427      0.179992     -0.173500
Li	      2.19427      4.46848     -2.12336         0.175372     -0.020706      0.036350
Mn	      0.01721      0.14905     -0.15091         2.000952     -1.108868      1.630042
Mn	      2.26283      0.20046     -2.16909        -0.974762     -0.191346     -1.459185
Ni	      2.27557      2.38565     -4.27151        -0.163036     -0.909680      0.278608
Ni	      4.44834      4.51743     -4.34243        -0.034057     -0.601927      0.680495
O	      4.37735      4.51897     -2.11207        -0.275539      0.113651      0.588237
O	      4.43745      2.35244     -4.50569        -0.352712      0.850723      0.209165
O	      4.58568      2.32262     -0.00130        -0.963682      0.543357     -0.505260
O	      4.27817     -0.09529     -2.14905        -0.864034      1.560363      0.052799
O	      2.37354      4.47423      0.08991         0.403917     -0.157440     -1.102065
O	      2.24141      2.05072     -2.19616         0.522617      0.190490     -0.107519
O	      2.21764      6.94941     -2.22092         0.266400     -0.713597     -0.334708
O	      2.14206      4.49426     -4.50759         0.257458     -0.146530      0.446341
