# total energy = -228.31750681 eV
 
CRYSTAL
PRIMVEC
-0.025957 6.296730 6.262180 
6.254716 0.019903 6.216268 
4.187529 4.185007 -0.004430 
PRIMCOORD
36 1
Li	      6.28161     10.39247      8.39275        -0.070713      0.012189     -0.007596
Li	      4.27088      8.33242      8.45578        -0.018338      0.012110     -0.003289
Li	      4.11703      6.36191     10.22923        -0.005463      0.022288      0.039277
Li	      6.25318      8.40134     10.20141         0.080197     -0.010225      0.054963
Li	      2.12804      4.18287      2.16899         0.026274     -0.040406     -0.013564
Li	      4.10756      4.09887      4.09211        -0.030841     -0.018144     -0.032826
Li	      6.23654      8.45522      6.33386        -0.034684      0.011746      0.006296
Li	      4.10706      6.27157      6.38211        -0.046748     -0.000509     -0.009264
Li	      8.23484      8.48132      8.37928         0.012737      0.005234      0.006756
Sc	      2.13454      8.36967      6.29194         0.148611     -0.023173      0.040853
Ti	      6.14026      4.28361      6.14811        -0.326388      0.127364     -0.360183
Cr	     -0.00597      6.28651      6.25680        -0.118847      0.088159      0.205876
Cr	      4.13566      2.11109      6.20061         0.084235     -0.061755     -0.051367
Cr	      6.26576      4.23130     10.34549        -0.021819      0.039446      0.158433
Fe	      4.15849      6.19945      2.17461         0.006858     -0.005077     -0.090112
Co	      2.08975      2.13246      4.13657         0.027274      0.046076     -0.096052
Ni	      2.09770      6.25081      4.16960         0.071851     -0.046354      0.022028
Ni	      6.19704      6.38308      8.35533         0.128522     -0.088666     -0.104605
O	      6.23514      8.26956      8.31151         0.036715      0.140177     -0.009673
O	      1.99151      2.10192      2.17674         0.033144      0.014731     -0.064703
O	      4.17352      4.28944      1.97388        -0.015280     -0.156018     -0.129734
O	      4.00333      2.13138      4.24269        -0.039159     -0.037762     -0.008986
O	      6.26832      4.30506      4.26356        -0.045720     -0.024371      0.304507
O	      6.20453      2.15278      6.24753         0.041127      0.094694     -0.032691
O	      8.34810      4.25005      6.21994        -0.115293     -0.057896     -0.010040
O	      2.00095      4.09846      4.17218         0.001225     -0.063860      0.022332
O	      4.23881      6.35587      4.12499         0.086643      0.060239      0.057228
O	      4.29617      4.12506      6.21650         0.338656      0.033038     -0.023065
O	      6.31580      6.21967      6.13732        -0.004628     -0.216813      0.036172
O	      6.26400      4.23919      8.25238        -0.005449      0.008866     -0.027432
O	      8.33971      6.29819      8.26423         0.000503      0.008356     -0.115569
O	      1.99230      6.31632      6.23916        -0.021714      0.047813      0.090397
O	      4.15239      8.49903      6.15417        -0.043586     -0.063295      0.023275
O	      4.30513      6.33851      8.29187        -0.111791     -0.013174      0.021244
O	      6.30436      6.23471     10.43636        -0.045353      0.037604      0.108218
O	      8.42805      8.33621     10.44895        -0.002757      0.117366     -0.007102
