# total energy = -232.15521305 eV
 
CRYSTAL
PRIMVEC
0.039304 6.117515 6.163745 
6.469468 0.021049 6.183771 
4.325509 4.105075 0.000671 
PRIMCOORD
36 1
Li	      8.65733      8.18397     12.30121        -0.029419      0.033251     -0.070845
Li	      4.36237      2.03359      2.19851         0.028658     -0.000681      0.039922
Li	      4.40338      0.15809      4.10058         0.012280      0.019623     -0.008713
Li	      6.35464      2.04941      4.09111         0.087774     -0.030910     -0.018888
Li	     10.76776      6.15250      8.22389        -0.026273     -0.001817      0.034583
Li	      2.34597      2.07027      4.12670         0.080615      0.080213      0.021948
Li	      4.35514      2.03143      6.07318         0.052571     -0.004887      0.001488
Li	      6.52068      8.13824      6.22516        -0.017816     -0.046775     -0.082248
Li	      6.55685      6.21885      8.23540         0.036218      0.033014      0.017203
Sc	      6.59935      4.03293      6.17722         0.103367      0.066019      0.042689
Ti	      2.16349      0.10183      2.09153        -0.040063      0.099310      0.117963
Cr	      6.46431      0.05379      6.18112        -0.156968      0.019617      0.092799
Cr	      4.29238      4.03555      4.08741        -0.066934     -0.016586      0.100795
Cr	      8.59818      8.13559      8.25669        -0.115123      0.072018      0.165267
Fe	      4.45757      6.20554      6.18191        -0.048829      0.020045      0.056881
Co	     10.75743      8.19444     10.26188         0.152836      0.137865     -0.567353
Co	      8.62169      6.14012     10.31098        -0.015735      0.123797     -0.017187
Cu	      2.18234      4.05138      2.04030        -0.037560     -0.086630      0.035851
O	      2.19229      1.99571      2.06461         0.005983     -0.251800     -0.030363
O	      4.51857      4.08029      2.04893         0.203451      0.024338     -0.060620
O	      4.31067      2.12477      4.12508         0.095249      0.012303     -0.028024
O	      6.35324      4.13992      4.06274         0.080367      0.021380     -0.127741
O	      6.47031      2.02773      6.18769         0.000672     -0.150743      0.061351
O	      8.71405      4.11537      6.24624         0.097817     -0.009703     -0.135372
O	      2.28769      4.16665      4.01616        -0.087705      0.109376      0.091979
O	      4.09357      6.18329      4.18950        -0.038136     -0.211368     -0.116392
O	      4.38896      4.15400      6.14911        -0.014362      0.016753      0.050407
O	      6.36125      6.12081      6.17801         0.158625     -0.054423      0.073507
O	      6.31222      4.09100      8.34877        -0.196017     -0.070216      0.202147
O	      8.61169      6.13105      8.39644         0.018439      0.056361      0.118862
O	      2.11204      6.13128      6.16943         0.049581     -0.005427     -0.020058
O	      4.37561      8.19178      5.96369        -0.124263      0.062757      0.123893
O	      4.20532      6.09425      8.17708        -0.024309     -0.010538     -0.024754
O	      6.62246      8.30313      8.22555        -0.039387      0.066484     -0.027582
O	      6.66887      6.01922     10.35785        -0.030066      0.050539     -0.069667
O	      8.65493      8.08231     10.23539        -0.155536     -0.172557     -0.043730
