# total energy = -232.19478922 eV
 
CRYSTAL
PRIMVEC
0.019087 6.186787 6.282130 
6.416532 0.007711 6.293813 
4.276029 4.130415 0.007038 
PRIMCOORD
36 1
Li	      6.35403      6.19063     12.48489        -0.046227      0.005121      0.017975
Li	      6.50204      8.09287     10.57136         0.020857      0.019236      0.014705
Li	      8.46141      4.23701      8.36374        -0.018084      0.005088     -0.063667
Li	      4.19640      4.05337      4.27221         0.030228      0.057152     -0.007894
Li	      4.25414      2.12856      6.29531         0.016824     -0.017993     -0.020094
Li	      6.39660      4.19418     10.37736        -0.057660     -0.029741     -0.021250
Li	      2.25565      4.06403      6.23122         0.083725      0.040114      0.038409
Li	      4.39154      4.03249      8.37634         0.046291      0.043269     -0.034491
Li	      6.54973      6.11748      8.47545        -0.014160      0.014567     -0.033398
Sc	      4.33058      6.16554      6.19248        -0.008863     -0.012339     -0.026721
Ti	      6.40958     10.19814      8.44573        -0.010149     -0.191283      0.003299
Cr	      8.54144      2.09483      6.28426        -0.073228     -0.004875     -0.005675
Cr	      6.39745      2.12070      8.41063         0.014463     -0.003659     -0.025513
Cr	      6.43353      4.15259      6.27297         0.006025     -0.097866      0.009961
Fe	      4.27181      2.12967      2.13721        -0.142724     -0.030399      0.023183
Co	      2.15820      2.15632      4.17425        -0.024477      0.035990     -0.015336
Co	      8.34452      6.06158     10.37242        -0.026424     -0.087451     -0.062099
Ni	      4.36736      6.17223     10.46327         0.068224     -0.051221      0.019882
O	      2.11087      2.06399      2.14789         0.000776     -0.038212      0.027835
O	      4.44373      4.17173      2.14140         0.151053      0.014910      0.005877
O	      4.09208      2.07014      4.09210        -0.061855      0.089071      0.082806
O	      6.49329      4.30044      4.14732        -0.134326     -0.054069     -0.059778
O	      6.51122      2.13388      6.37931         0.016862     -0.012514      0.000015
O	      8.46311      4.06699      6.21836        -0.003523      0.008866      0.140749
O	      2.15478      4.18486      4.22664         0.040523      0.066271     -0.007176
O	      4.44941      6.25927      4.13077         0.076322      0.022804      0.020616
O	      4.40941      4.15753      6.27327        -0.013018      0.033654      0.004785
O	      6.42535      6.18296      6.12586        -0.003509      0.039976     -0.001230
O	      6.43285      4.09197      8.25401        -0.007452      0.009865      0.022607
O	      8.68058      6.18416      8.47181        -0.015293      0.002829      0.044614
O	      2.19734      6.22817      6.44758         0.015335      0.003324      0.112186
O	      4.15837      8.27080      6.45449         0.011423     -0.002039     -0.066507
O	      4.15346      6.25065      8.38465        -0.083972     -0.023574     -0.090801
O	      6.31222      8.35845      8.45258         0.084228      0.200367     -0.014756
O	      6.44237      6.17411     10.47220         0.069491     -0.028109      0.004516
O	      8.56576      8.08960     10.61122        -0.007705     -0.027131     -0.037635
