# total energy = -232.60939161 eV
 
CRYSTAL
PRIMVEC
0.030946 6.151125 6.298948 
6.330803 0.014433 6.316296 
4.231304 4.123783 -0.001647 
PRIMCOORD
36 1
Li	      6.28059      0.08854      6.23196        -0.003278      0.036344     -0.202487
Li	      8.43976      8.23478     12.55418         0.030480     -0.028136     -0.178490
Li	      8.50580      4.16363      4.30681         0.118464     -0.092159      0.041599
Li	      6.29329      2.01765      4.32594         0.034163     -0.113132      0.024906
Li	      0.10900      2.02482      2.10073        -0.059139      0.133262      0.136608
Li	      2.15966      2.03407      4.18137        -0.114289      0.022691      0.054940
Li	      4.24994      1.99429      6.20260         0.011279      0.027121     -0.052310
Li	      8.44450      6.22952     10.57755         0.020516      0.046831      0.019955
Li	      4.21712      6.18196      6.24752        -0.051916     -0.043152     -0.216314
Sc	      8.52618      8.15460      8.44725         0.326131     -0.368042      0.457722
Ti	      2.02346      4.10442      6.19082         0.105827      0.073312     -0.614591
Cr	      2.12618      0.08491      2.10975        -0.167212     -0.137480      0.032970
Cr	      8.48942      4.12592      8.35235        -0.202159      0.114362      0.284153
Cr	      6.32110      6.17278      8.44906         0.187751     -0.232143      0.507686
Fe	      4.30577      4.13931      4.24367        -0.072084      0.983175      0.197769
Co	      6.45480      3.99752      6.19305         0.061957     -0.333686     -0.049507
Co	      4.21494      2.06709      2.13679        -0.180835      0.042993     -0.064090
Co	      4.17004      8.15836      4.29606         0.258960      0.242425     -0.231449
O	      2.17847      2.06697      2.08581         0.697477     -0.009008     -0.095889
O	      4.24301      4.20613      2.19257         0.006444     -0.932665     -0.277533
O	      4.25292      2.20061      4.09715        -0.099089     -0.307648      0.033781
O	      6.29747      4.17732      4.16998         0.204252     -0.032327     -0.041192
O	      6.31642      2.20862      6.29709         0.040536      0.390722      0.071406
O	      8.42379      4.14770      6.41232        -0.102800      0.001516     -0.083649
O	      2.09652      4.10731      4.25824        -0.240858     -0.086303      0.168125
O	      4.22506      6.23130      4.20501         0.043475     -0.611331      0.015991
O	      4.16022      4.11364      6.24650        -0.112758     -0.056656      0.275322
O	      6.33255      6.24386      6.41592        -0.021603      0.021505      0.000401
O	      6.42689      4.17103      8.34155        -0.068038     -0.099215      0.166055
O	      8.32202      6.09725      8.42555         0.025605      0.186836     -0.121096
O	      2.11070      6.02544      6.43338        -0.000283     -0.133616      0.200914
O	      4.36649      8.23235      6.38149        -0.276331     -0.071933     -0.201217
O	      4.21600      6.10679      8.41358        -0.041253      0.969785     -0.076921
O	      6.40053      8.23499      8.33027        -0.477862      0.069040      0.013847
O	      6.33136      6.00044     10.42856        -0.114948      0.274644     -0.079788
O	      8.56494      8.18873     10.48317         0.233422      0.052069     -0.117628
