# total energy = -226.29859047 eV
 
CRYSTAL
PRIMVEC
0.039585 6.257174 6.173592 
6.505273 0.018315 6.195707 
4.328810 4.178595 0.019184 
PRIMCOORD
36 1
Li	      6.47933      0.10702      6.14917        -0.008711      0.052848      0.016083
Li	      4.46677      6.28635     10.27526         0.037227     -0.035097     -0.008193
Li	      6.43056      2.01574      4.19321        -0.051193     -0.093650      0.000856
Li	     10.70195      6.27218      8.23426        -0.029138     -0.008382     -0.024160
Li	      4.43254      2.10879      6.26487         0.081904     -0.013644     -0.023727
Li	      8.68454      6.27097     10.20328        -0.025653      0.000140     -0.000197
Li	      6.55768      8.35405      6.23223         0.002750      0.020426     -0.013798
Li	      8.63680      8.20348      8.30778         0.029517     -0.118735      0.059917
Li	      6.66964      6.34712      8.24810         0.100764      0.046347     -0.027947
Sc	      2.25518      2.14314      4.10355        -0.006882      0.115097      0.064356
Ti	      6.55459     10.28922      8.29466         0.058314     -0.475251     -0.028665
Cr	      8.62995      2.10790      6.20659        -0.010270      0.013644     -0.167071
Cr	      6.51599      4.14922      6.20709         0.113848     -0.053068      0.039701
Cr	      6.44858      4.34631     10.27440        -0.139734      0.390884     -0.111307
Fe	      4.37401      6.24777      6.19043        -0.080975      0.030470      0.145916
Cu	      4.42409      8.34790      8.27484         0.115859     -0.063406     -0.032397
Cu	      8.58734      4.30803      8.23834         0.106247     -0.079689     -0.015601
Cu	      4.35031      4.19259      4.15547        -0.001962      0.126356      0.064683
O	      8.70971      6.21385      8.22997         0.039923      0.103615     -0.004268
O	      6.50080      6.14136     10.30787        -0.051122     -0.143033     -0.025239
O	      2.08892      2.01720      2.02519        -0.109842     -0.071973      0.051395
O	      4.43903      4.05345      2.16990         0.154712      0.253005     -0.076355
O	      4.31045      2.20250      4.16576         0.058773     -0.055750     -0.010241
O	      6.65818      4.21570      4.11300         0.075813     -0.010991     -0.044733
O	      6.65460      2.17337      6.15610        -0.139590     -0.007535      0.002039
O	      8.55137      4.10517      6.29598         0.003672      0.088346     -0.262777
O	      1.90499      4.18184      4.04557        -0.065216      0.014067      0.252655
O	      4.38471      6.27800      4.19416        -0.004736      0.033121     -0.098445
O	      4.45857      4.24777      6.12685         0.011937     -0.137442      0.055336
O	      6.38901      6.20670      6.18592         0.074831      0.077093      0.019490
O	      6.57853      4.19853      8.24288        -0.362742     -0.019338      0.099918
O	      2.24951      6.31293      6.31378         0.040630     -0.139971      0.053733
O	      4.24182      8.31709      6.10888        -0.018330     -0.035821      0.074001
O	      4.21214      6.39202      8.19650        -0.077984     -0.106495      0.023795
O	      6.62388      8.45769      8.25203         0.041601      0.337348      0.059170
O	      8.92136      8.32618     10.38634         0.035758     -0.033534     -0.107921
