# total energy = -233.19896893 eV
 
CRYSTAL
PRIMVEC
-0.057125 6.404959 6.183883 
6.330167 -0.030800 6.157851 
4.209684 4.241489 -0.009478 
PRIMCOORD
36 1
Li	      0.05264      6.38729      6.06781         0.022874      0.023902      0.060555
Li	      4.33590      8.34025      8.21819        -0.041746     -0.021598     -0.010199
Li	      4.33203      6.44267     10.21160         0.038866     -0.011073      0.041817
Li	      6.13111      8.35767     10.24276        -0.055110     -0.061726      0.007636
Li	      4.18085      2.15159      6.05930        -0.013360      0.025422      0.003169
Li	      2.00740      6.41951      4.24569         0.025492      0.018477      0.022547
Li	      6.16196      8.50784      6.25585        -0.063497      0.001886      0.012559
Li	      4.17401      6.44280      6.21464        -0.014938     -0.017606     -0.013584
Li	      6.12725      6.49941      8.22981        -0.003097     -0.032331     -0.061263
Sc	      8.23065      8.54777      8.21811        -0.160485     -0.021738     -0.022375
Ti	      8.49739      4.34067      8.15672         0.195450      0.079719     -0.105638
Cr	      2.06988      8.46549      6.16734         0.019853     -0.032901      0.078473
Cr	     -0.00133      2.12924      2.06537         0.076092     -0.056932      0.014030
Cr	      6.28594      4.22177      6.11202        -0.007167      0.019666     -0.044839
Fe	      6.38017      6.36442      4.19767        -0.095048      0.009227     -0.234282
Fe	      6.27575      4.43112     10.39805         0.112283     -0.181640     -0.136362
Co	      4.17261      4.25537      4.14588         0.004171     -0.024966      0.011183
Cu	      6.32252     10.53519      8.18769        -0.036193     -0.069222      0.142463
O	      2.00758      2.30413      2.04116        -0.036270      0.235387      0.013294
O	      4.10814      4.34611      2.16590        -0.226723      0.095549     -0.066172
O	      4.11268      2.30371      4.07684         0.112904      0.068042     -0.024474
O	      6.11604      4.30923      4.08842        -0.040731     -0.023814      0.023688
O	      6.41334      2.18765      6.21666         0.022458      0.001127     -0.046622
O	      8.35320      4.14625      6.24833         0.030054      0.013305      0.074332
O	      2.10924      4.20133      4.04230        -0.003607      0.052516     -0.005101
O	      4.27885      6.28172      4.04301        -0.045719      0.017690      0.043519
O	      4.29243      4.21504      6.08625         0.008805     -0.020599      0.028697
O	      6.32117      6.21519      6.10063        -0.007876     -0.035067      0.190333
O	      6.37678      4.13785      8.20345        -0.009388      0.044716      0.036502
O	      8.52013      6.24041      8.19024        -0.000623     -0.115948     -0.015517
O	      2.02636      6.52133      6.29588         0.021710      0.056597     -0.158782
O	      4.08679      8.51245      6.12889         0.019735      0.006842      0.131706
O	      4.11336      6.32059      8.26624         0.136701      0.007123     -0.005778
O	      6.29502      8.40506      8.21516        -0.004501     -0.182772      0.015344
O	      6.31104      6.28110     10.26648         0.032428      0.152317      0.001587
O	      8.50380      8.43740     10.30881        -0.013797     -0.019577     -0.002447
