# total energy = -91.67898421 eV
 
CRYSTAL
PRIMVEC
2.175528 4.353636 2.118603 
4.273825 -2.144370 -2.106054 
0.008174 4.368539 -4.274999 
PRIMCOORD
16 1
Li	      2.20591      2.31625     -0.04511         0.055911      0.054263     -0.139867
Li	      4.43709      2.31546     -2.26488        -0.213138      0.395073     -0.129479
Li	      0.04235      2.29326     -2.23585         0.153671      0.204494     -0.195292
Li	      2.21552      4.51176     -2.14393         0.187231     -0.022154      0.034605
Mn	      0.01742      0.17159     -0.17303         2.261705     -1.290066      1.860535
Mn	      2.29525      0.22342     -2.17986        -1.060540     -0.200849     -1.643083
Ni	      2.30812      2.42978     -4.30264        -0.154197     -1.006223      0.299111
Ni	      4.49142      4.56119     -4.38449        -0.016529     -0.656372      0.741793
O	      4.41974      4.56274     -2.13253        -0.299199      0.115811      0.626513
O	      4.48043      2.37522     -4.54933        -0.401172      0.957162      0.253513
O	      4.63009      2.34511     -0.00131        -1.141306      0.584113     -0.542667
O	      4.31961     -0.09621     -2.16987        -0.945450      1.807897      0.081869
O	      2.39653      4.51756      0.09079         0.388039     -0.168304     -1.277255
O	      2.26312      2.07059     -2.21743         0.583805      0.236745     -0.135834
O	      2.23912      7.01672     -2.24244         0.273890     -0.823760     -0.386212
O	      2.16280      4.53779     -4.55125         0.327278     -0.187832      0.551751
