# total energy = -231.02477750 eV
 
CRYSTAL
PRIMVEC
0.007259 6.336516 6.261598 
6.261635 -0.002051 6.271094 
4.175506 4.231929 -0.002536 
PRIMCOORD
36 1
Li	      2.29867      6.21594      8.35328         0.135599     -0.091269      0.008221
Li	      4.24082      8.31518      8.39816         0.039758     -0.078594     -0.006563
Li	      4.13406      6.34311     10.31046         0.024947     -0.006473     -0.030669
Li	      6.32689      8.46773     10.33076         0.039846      0.011375     -0.063383
Li	      4.15094      2.13711      6.25642        -0.008554      0.041086     -0.029624
Li	     10.38840      8.40662     10.42755        -0.044858     -0.012487      0.022330
Li	      8.36621      6.43456     10.39399         0.015897      0.081355      0.016795
Li	      4.19501      6.29205      6.36890         0.011320     -0.053675      0.023788
Li	      8.26622      8.56399      8.41920         0.013847      0.049234      0.078174
Sc	      4.18889      4.16325      4.17429         0.002964     -0.015837     -0.002567
Ti	      6.30480      6.28878     12.39238         0.106236     -0.300714     -0.401608
Cr	     10.36786      6.38092      8.37268        -0.038481      0.057315      0.128124
Cr	      2.10133      2.10258      4.17035        -0.051795      0.007383      0.045844
Cr	      6.25903      4.23982      6.26877        -0.054236      0.068800     -0.056284
Fe	      8.40103      8.40270     12.38296         0.124280     -0.027458      0.220809
Fe	      6.16885      6.44415      8.41296         0.245978     -0.064963      0.065168
Cu	      8.33531      4.24718      8.38790        -0.036761     -0.025567      0.080363
Ni	      6.31012      8.44384      6.31461        -0.000541     -0.012006     -0.047193
O	      1.97102      2.19484      2.12392        -0.041201     -0.024151     -0.046423
O	      4.08671      4.37681      2.00347         0.065559      0.039319     -0.050839
O	      4.07958      2.15143      4.14579        -0.014847      0.017989      0.001634
O	      6.26877      4.30666      4.26114        -0.011506      0.013718      0.015994
O	      6.30675      2.12954      6.34310        -0.053407     -0.011717      0.006500
O	      8.36294      4.14826      6.35453         0.019473      0.046889     -0.066328
O	      2.07609      4.12906      4.20802        -0.019693     -0.039142     -0.049564
O	      4.23332      6.32137      4.08507         0.013691     -0.044341     -0.038256
O	      4.24736      4.22462      6.23361         0.100777     -0.018753     -0.017536
O	      6.27728      6.27806      6.24711         0.023460     -0.142519     -0.079765
O	      6.33149      4.21265      8.28388        -0.119800     -0.049909     -0.028668
O	      8.33771      6.23545      8.38309        -0.024886      0.056943     -0.011879
O	      1.95672      6.37057      6.30385        -0.210614      0.037843      0.007909
O	      4.16509      8.61865      6.29110        -0.078292      0.362327     -0.014203
O	      4.30160      6.32437      8.34682        -0.211061     -0.041322     -0.023572
O	      6.29614      8.36232      8.30156         0.018124      0.146837      0.142936
O	      6.24877      6.36912     10.53669         0.037246     -0.002220      0.427726
O	      8.36632      8.43922     10.55377        -0.018467      0.024706     -0.227390
