# total energy = -235.66215498 eV
 
CRYSTAL
PRIMVEC
0.023448 6.307504 6.289398 
6.248963 0.029429 6.283326 
4.170677 4.205673 0.014974 
PRIMCOORD
36 1
Li	      4.24690      8.38745      8.42818        -0.026712     -0.024252      0.039764
Li	      4.23533      6.36333     10.47906        -0.038103      0.042815      0.006720
Li	      6.24925      8.36860     10.48715        -0.028886     -0.029294     -0.016299
Li	      4.18603      6.28079      2.15906        -0.017535     -0.034960      0.066767
Li	      4.20409      4.22873      4.23276        -0.000702      0.020168      0.031149
Li	      6.25814      4.21541      6.22017         0.011314      0.038018     -0.095219
Li	     10.42630      8.48990     10.53613         0.030547     -0.006754      0.028735
Li	      2.06798      6.30714      4.24250         0.040134     -0.044906      0.041930
Li	      6.26459      8.40714      6.29388         0.033626     -0.024170      0.004184
Sc	      8.40354      8.40754      8.53392         0.018022     -0.017344      0.069281
Ti	      2.06896      4.21319      2.19873        -0.055785     -0.038358      0.461141
Cr	      6.27885      6.29913     12.47693         0.005738     -0.014124     -0.030288
Cr	      8.31777      8.46609     12.50428        -0.040996     -0.004986      0.036833
Cr	      6.25940      6.30190      4.20246        -0.025057      0.033756     -0.044981
Fe	      6.16325      4.11768      2.19380         0.041280      0.113105     -0.005557
Fe	      4.22941      2.22521      6.17400        -0.098305     -0.074849      0.017903
Fe	      4.20817      6.33823      6.22008        -0.005563     -0.060961      0.002588
Ni	      6.23507      6.37633      8.49802        -0.015658      0.036219     -0.105635
O	      2.05357      2.18983      2.08966        -0.006087      0.027784     -0.071135
O	      4.12740      4.20462      1.98953        -0.107975     -0.002759     -0.015357
O	      4.08439      2.11806      4.28222         0.048726     -0.016639     -0.150784
O	      6.24266      4.32737      4.07958         0.030711     -0.012466      0.124096
O	      6.23926      2.03352      6.25748         0.118544      0.023828      0.029907
O	      8.41283      4.19427      6.36436        -0.109433      0.015291     -0.042564
O	      2.13887      4.14429      4.05794        -0.022392      0.065371     -0.378100
O	      4.24956      6.29574      4.30947        -0.037369      0.030437     -0.166190
O	      4.20424      4.19191      6.36663         0.006517      0.142657     -0.020576
O	      6.26117      6.33997      6.24167         0.086376      0.015566     -0.002132
O	      6.38014      4.27837      8.37239         0.063418     -0.101477     -0.006760
O	      8.32570      6.24875      8.30516         0.161453     -0.019673      0.018823
O	      2.08420      6.41241      6.37049        -0.047668     -0.086927     -0.072749
O	      4.07894      8.40917      6.28803         0.064321      0.098148      0.052377
O	      4.15004      6.28306      8.26276        -0.061784      0.056995      0.127256
O	      6.30145      8.47732      8.40398        -0.008652     -0.115681     -0.023264
O	      6.28706      6.31726     10.51375         0.001814     -0.028042      0.140498
O	      8.35400      8.43070     10.54362        -0.007879     -0.001537     -0.052363
