# total energy = -220.45771924 eV
 
CRYSTAL
PRIMVEC
-0.046679 6.367552 6.203318 
6.310125 -0.040957 6.197159 
4.171511 4.205865 0.007971 
PRIMCOORD
36 1
Li	      4.09028      4.29366      0.19607        -0.021073      0.027207     -0.002691
Li	      2.01106      0.07015      2.05227        -0.096852     -0.001119      0.019595
Li	      4.10748      2.19084      2.06674         0.005854      0.048943     -0.002962
Li	      6.28804      2.07334      8.21196        -0.031358     -0.026509      0.025981
Li	      2.12417      4.15634      2.02223         0.042650      0.056400      0.063251
Li	      2.09372      2.13754      4.01902         0.009482      0.021688      0.019415
Li	      4.07349      4.30648      4.01254        -0.020829      0.008379     -0.011451
Li	      4.31810      2.01905      6.23287         0.013157     -0.109694      0.029352
Li	      4.24577      4.16585      8.21394        -0.004682     -0.062394      0.010949
Sc	      6.36109      6.24812      8.19223         0.174043      0.071162      0.035454
Ti	      6.17217      2.16114      4.09364        -0.275344      0.097562     -0.089167
Cr	      8.33932     10.51166     10.33710         0.006152      0.084733     -0.009136
Cr	      2.07515      6.31438      4.14521         0.070703      0.038044      0.023541
Cr	      4.13988      6.29536      6.26567        -0.057421      0.023991     -0.158600
Ni	      2.07409      2.12103      0.09556         0.039393     -0.045779      0.007613
Ni	      4.16706      8.39356      4.11815         0.021605      0.045337     -0.014305
Ni	      6.28333      4.16257      6.21415        -0.037697      0.038196      0.019306
Ni	      6.24018      8.45420      6.26435        -0.010779     -0.015232      0.036890
O	      4.15058      4.20841      2.10023         0.043158     -0.012925     -0.032506
O	      2.08706      2.11359      2.01187        -0.028910     -0.009157      0.112790
O	      4.31337      1.94468      4.14712         0.232463      0.017765      0.006034
O	      6.38433      4.06574      4.13359         0.009268     -0.094752     -0.080886
O	      6.33244      2.10403      6.06234        -0.052308     -0.060174     -0.073071
O	      8.33691      4.12650      6.08670         0.056795      0.075079     -0.010586
O	      2.00017      4.38930      4.23775         0.052374     -0.083045     -0.074239
O	      4.04417      6.36825      4.30164         0.022976     -0.084386      0.123986
O	      4.15059      4.41252      6.17912         0.053103      0.039052      0.044835
O	      6.15364      6.33331      6.15412        -0.030852     -0.046054      0.016553
O	      6.27668      4.22774      8.27508        -0.019407     -0.024360     -0.022577
O	      8.38419      6.33809      8.39575        -0.124751      0.020076     -0.174109
O	      2.14724      6.34284      6.16597         0.046402      0.028943      0.062093
O	      4.15169      8.26176      6.18231        -0.030339     -0.071958      0.090686
O	      4.21126      6.32236      8.21479        -0.009576     -0.035623     -0.058632
O	      6.29607      8.39211      8.37470         0.014138     -0.008153      0.141329
O	      6.25919      6.38152     10.34272        -0.017776      0.032662     -0.020120
O	      8.33262      8.42013     10.42763        -0.043763      0.016097     -0.054615
