# total energy = -232.84373019 eV
 
CRYSTAL
PRIMVEC
-0.019209 6.222934 6.359615 
6.196713 -0.035611 6.376219 
4.132921 4.161265 -0.025512 
PRIMCOORD
36 1
Li	      6.15772      6.20414     12.61232         0.007741      0.006691     -0.061257
Li	      6.29801     10.23186      8.52269         0.008372     -0.014811      0.041741
Li	      4.22191      6.18956     10.48725         0.022329      0.026088      0.011483
Li	      6.14516      8.24446     10.50374        -0.019737      0.028666      0.000716
Li	      6.16089      6.24754      4.22496        -0.010892     -0.003132     -0.005383
Li	      6.19746      4.16579     10.61757        -0.004973     -0.019424     -0.002200
Li	      6.17644      8.25792      6.43746         0.015764      0.005208      0.029869
Li	      4.11657      6.24776      6.38738        -0.035953      0.004164     -0.005245
Li	      8.09919      8.43245      8.56599         0.004195      0.023221      0.086352
Sc	      6.17536      4.16055      6.30878        -0.048307     -0.013265     -0.092680
Ti	      2.12663      8.20221      6.27596         0.160827     -0.366546     -0.193142
Mn	      4.12010      4.12583      4.20697         0.031039      0.002216     -0.029156
Cr	      4.12633      8.27772      8.46597         0.011860      0.021884      0.088120
Cr	      2.02835      6.21465      4.25778         0.083979     -0.004383      0.069320
Cr	      6.18452      6.22532      8.51822        -0.012026      0.003982      0.002573
Co	      2.06291      4.15788      2.12813         0.020056      0.025622     -0.011203
Cu	      4.15368      2.02750      6.31562         0.068631     -0.019436     -0.070379
Ni	      4.14123      6.24242      2.13296        -0.014262     -0.001313     -0.002452
O	      2.07708      2.20982      2.00405         0.101307      0.036418     -0.031054
O	      4.01648      4.13314      2.23620        -0.014224     -0.085799      0.061518
O	      4.09057      2.20498      4.09285        -0.019642      0.068662     -0.199426
O	      6.03541      4.16704      4.23936        -0.071422     -0.013181      0.021242
O	      6.22084      2.05698      6.46745         0.164489      0.046081     -0.051183
O	      8.27872      4.11702      6.50459        -0.025556     -0.110119      0.120235
O	      2.13698      4.19098      4.08771         0.008665     -0.028531     -0.022571
O	      4.06105      6.08784      4.19426        -0.011512     -0.092820      0.105496
O	      4.09842      4.06723      6.14990         0.015060      0.113569     -0.065751
O	      6.29893      6.20186      6.46928        -0.201967      0.005958     -0.000855
O	      6.29323      4.14281      8.48192         0.042634      0.102645      0.003183
O	      8.24960      6.08171      8.62608        -0.107491     -0.051531      0.113633
O	      2.02724      6.32007      6.30186         0.019153      0.304374     -0.050215
O	      4.00798      8.30757      6.42836        -0.169040     -0.000423     -0.034940
O	      4.18717      6.27253      8.48863         0.018920      0.017057     -0.019503
O	      6.12276      8.22207      8.45821        -0.021183     -0.016456      0.000635
O	      6.25194      6.18846     10.52127        -0.036413     -0.003396     -0.017167
O	      8.25291      8.23195     10.75390         0.019576      0.002059      0.209647
