# total energy = -91.31086185 eV
 
CRYSTAL
PRIMVEC
2.185987 4.374567 2.128788 
4.294372 -2.154679 -2.116179 
0.008213 4.389541 -4.295552 
PRIMCOORD
16 1
Li	      2.22717      2.33857     -0.04555         0.061330      0.052595     -0.146495
Li	      4.47986      2.33778     -2.28671        -0.229609      0.430390     -0.147035
Li	      0.04276      2.31536     -2.25740         0.163949      0.229371     -0.210979
Li	      2.23687      4.55524     -2.16459         0.196398     -0.023577      0.034142
Mn	      0.01762      0.19435     -0.19534         2.514804     -1.472466      2.084039
Mn	      2.32788      0.24661     -2.19064        -1.139282     -0.207938     -1.823695
Ni	      2.34088      2.47423     -4.33388        -0.145554     -1.106304      0.309214
Ni	      4.53471      4.60515     -4.42675         0.012535     -0.707602      0.798155
O	      4.46235      4.60672     -2.15309        -0.323150      0.116931      0.657959
O	      4.52361      2.39812     -4.59318        -0.446718      1.053964      0.297707
O	      4.67472      2.36772     -0.00132        -1.325050      0.615340     -0.576836
O	      4.36125     -0.09714     -2.19078        -1.013508      2.062942      0.119712
O	      2.41963      4.56110      0.09166         0.357078     -0.177128     -1.452429
O	      2.28493      2.09054     -2.23881         0.643157      0.289852     -0.160298
O	      2.26070      7.08435     -2.26405         0.270250     -0.931348     -0.444686
O	      2.18364      4.58152     -4.59511         0.403369     -0.225023      0.661525
