# total energy = -227.88129185 eV
 
CRYSTAL
PRIMVEC
0.021361 6.348994 6.355697 
6.231779 0.006989 6.370012 
4.139268 4.227090 0.019695 
PRIMCOORD
36 1
Li	      8.34150      8.42824     12.62815         0.049094      0.001729     -0.012616
Li	      4.24584      8.39605      8.50330         0.006741     -0.016028     -0.087946
Li	      6.27814      8.45102     10.51463         0.022173     -0.012254      0.001600
Li	      2.06264      4.14215      2.26422        -0.059464     -0.067368     -0.063159
Li	      2.09078      2.17968      4.21209        -0.037485     -0.097182     -0.087171
Li	      0.02720      4.24062      4.23702        -0.017652      0.013526     -0.038561
Li	      6.19447      8.40635      6.38280        -0.001815      0.001581      0.027933
Li	      4.21580      6.47328      6.30612        -0.016880      0.023680     -0.001195
Li	      6.23209      6.55120      8.47401         0.019700      0.005021     -0.022791
Sc	      2.16421      6.26817      8.39136        -0.061406      0.316800     -0.032018
Ti	      6.22115      4.35735      6.44232        -0.039459      0.088286      0.386898
Mn	      4.05636      4.12176      4.26032         0.249941      0.192471     -0.028969
Cr	      4.13416     10.41858      6.34415        -0.118859     -0.053973      0.136942
Cr	      4.18644      6.37483     10.57107         0.075052      0.078675      0.133198
Cr	      4.16827      6.33067      2.15193        -0.231100      0.028316     -0.211206
Cu	      8.28060      6.34502      6.41203         0.011801      0.100111      0.237942
Cu	      8.28784      6.36160     10.64338         0.174736     -0.019544     -0.220609
Ni	      8.30491      8.49088      8.56636         0.102245      0.020655     -0.076212
O	      4.13709      8.62917      6.39189         0.064840      0.000932     -0.035709
O	      1.86006      2.06827      2.11202         1.093795     -0.245539      0.046199
O	      4.11423      4.32107      1.98232         0.039348     -0.270493     -0.079993
O	      4.15058      2.15101      4.21975        -0.005748     -0.075326      0.318423
O	      6.19398      4.22325      4.34104        -0.044965     -0.073234     -0.025552
O	      6.09695      2.09066      6.54211        -0.030150     -0.045100     -0.269259
O	      8.26634      4.18401      6.27629         0.039156     -0.246037     -0.181875
O	      2.20135      4.13242      4.27562        -0.141515      0.269656      0.045846
O	      4.08408      6.17395      4.11126        -0.062307     -0.098777      0.327015
O	      4.32247      4.27744      6.40744         0.185619      0.189427     -0.121563
O	      6.31965      6.20555      6.43508        -0.109750     -0.011492     -0.022001
O	      6.28222      4.10956      8.36934         0.028012      0.270379     -0.217676
O	      8.41392      6.41254      8.62558        -0.678162     -0.193074      0.008471
O	      1.97493      6.36906      6.30210        -0.067752     -0.048214     -0.005729
O	      4.19694      6.38668      8.56933        -0.073585      0.037508     -0.013437
O	      6.27518      8.50249      8.46303        -0.102921      0.090933      0.023374
O	      6.21315      6.42927     10.81622        -0.208276      0.088886      0.025354
O	      8.36974      8.64504     10.57852        -0.053002     -0.244938      0.136054
