# total energy = -228.01019040 eV
 
CRYSTAL
PRIMVEC
0.001933 6.175046 6.367154 
6.303635 -0.002872 6.372522 
4.207797 4.125405 -0.007079 
PRIMCOORD
36 1
Li	      6.31949      6.17093     12.67869         0.093938     -0.052039      0.017171
Li	      8.40287      8.22707     12.66478         0.028972     -0.049124      0.018102
Li	      8.30895      4.03933      4.38393        -0.117558     -0.013546      0.034888
Li	      0.05963      2.04277      2.10561         0.006007      0.022153     -0.074207
Li	      6.21766      6.15648      4.29532        -0.039241     -0.050587      0.056551
Li	      4.18806      4.20092      4.27789        -0.044841     -0.005894      0.034065
Li	      6.31890      4.12880      6.27778        -0.023596      0.055075      0.000424
Li	      4.24131      8.21013      4.35594         0.032946      0.015649      0.032517
Li	      2.07249      4.13771      6.20861        -0.013554      0.044927     -0.015857
Sc	      4.15216      2.07619      2.11285        -0.012576     -0.033211     -0.071643
Ti	      4.31243      2.02897      6.18760        -0.089882      0.042060     -0.032767
Mn	      6.34396      6.17540      8.46871        -0.065512     -0.034854     -0.133795
Cr	      6.24940      4.15820      2.17134        -0.023034      0.086531     -0.427768
Cr	      8.39954      4.14815      8.49753         0.028221     -0.027050      0.035055
Cr	      4.29353      4.06601      8.50334         0.038809      0.007350     -0.236003
Cu	      6.35054      2.11561      4.28480        -0.053522     -0.099414      0.057631
Cu	      2.15347      6.18688      4.27234         0.143152     -0.132362      0.031093
Cu	      4.15142      6.16989      6.33533         0.046752     -0.075615      0.051206
O	      4.03814      6.16136      4.40049         0.131468      0.019366     -0.114504
O	      8.53231      8.08113     10.46880        -0.046959      0.209052      0.251216
O	      2.09091      2.10143      2.18806        -0.039770     -0.067378      0.047045
O	      4.18547      4.09829      2.11168         0.063201      0.051646      0.014940
O	      4.04504      2.01589      4.33181         0.030226     -0.013570      0.051380
O	      6.27320      4.04880      4.13198        -0.024165      0.094478      0.312838
O	      6.18501      2.06350      6.27120         0.072399      0.011794     -0.057725
O	      8.41410      4.22655      6.44278         0.007504      0.072937     -0.061080
O	      2.09437      4.29411      4.11164        -0.032367     -0.113689     -0.036125
O	      4.20421      4.06192      6.49416         0.014299     -0.180672     -0.110047
O	      6.32512      6.19796      6.52165        -0.011572      0.001176     -0.034950
O	      6.33517      4.21764      8.48757         0.021322     -0.012995     -0.034233
O	      8.48287      6.18317      8.27195         0.061768     -0.032067     -0.232977
O	      2.15314      6.18156      6.55734        -0.122766     -0.006549      0.201970
O	      4.21605      8.14512      6.44595        -0.003686      0.161112      0.104953
O	      4.12526      6.09166      8.49532        -0.049308      0.010261      0.250640
O	      6.38207      8.23893      8.56176         0.009674      0.045808      0.071924
O	      6.51648      6.27017     10.44662        -0.016750      0.049242     -0.001929
