# total energy = -228.92933357 eV
 
CRYSTAL
PRIMVEC
0.041366 6.310760 6.208234 
6.361397 0.040072 6.208779 
4.256535 4.222902 0.011460 
PRIMCOORD
36 1
Li	      6.44004      6.37391     12.40262         0.002102     -0.012924      0.011910
Li	      2.21763      6.26153      8.24324         0.030349     -0.020273     -0.032790
Li	      4.25147      6.32973      2.12691        -0.062859     -0.029219     -0.039032
Li	      4.23612      4.33880      4.27221        -0.037777     -0.035460     -0.028053
Li	      4.18658      2.36474      6.21619        -0.014935      0.017079     -0.013377
Li	      2.16864      6.32107      4.17671        -0.042991      0.023354     -0.012983
Li	      2.42783      4.26393      6.19150         0.048774     -0.020795     -0.013598
Li	      4.27924      6.14388      6.18840        -0.023152      0.057692      0.012289
Li	      4.23998      4.27177      8.10454        -0.012804      0.000131      0.032656
Sc	      4.35065      8.41925      8.18284         0.097582      0.071938     -0.007985
Ti	      8.54646      4.39584      8.21774         0.181419      0.286016      0.034550
Mn	      6.31192      6.33919      4.20895         0.027313      0.016450      0.020459
Cr	      2.11613      8.25244      6.23632         0.014618     -0.127579     -0.007607
Cr	      8.54629     10.54086     10.38107         0.008968      0.000969      0.060727
Cr	      6.35435      2.13607      4.15488        -0.008109      0.014003     -0.001794
Ni	      6.26262      4.24872      6.26208         0.022388     -0.018318      0.019891
Ni	      4.28230      8.40306      4.15588        -0.074281      0.051660      0.011012
Ni	      6.40626      6.35152      8.24436         0.036063      0.063437     -0.032315
O	      4.30580      4.23386      6.19836        -0.173921     -0.043198      0.006845
O	      2.15471      2.15333      2.10057        -0.022742     -0.052229      0.012021
O	      4.07872      4.18757      2.07360        -0.164173      0.000746     -0.020643
O	      4.25011      2.01256      4.13665        -0.043762      0.056720      0.061999
O	      6.47454      4.28892      4.15467         0.015515     -0.016660     -0.108102
O	      6.52991      2.16651      6.14936        -0.003884     -0.078947      0.048332
O	      8.42471      4.09984      6.26121         0.112282      0.044357      0.079481
O	      2.10516      4.03427      4.06900         0.068309      0.006526     -0.052599
O	      4.46623      6.36203      4.13842         0.090787     -0.123478     -0.029278
O	      6.39315      6.33473      6.09258         0.023890      0.120445     -0.151969
O	      6.51307      4.30321      8.31724         0.054305     -0.149684      0.025039
O	      8.49939      6.23364      8.32258         0.070550     -0.280144     -0.016921
O	      2.13765      6.45882      6.20706        -0.051508      0.073609      0.010171
O	      4.03390      8.46987      6.16327        -0.031866     -0.017214      0.089004
O	      4.33393      6.35008      8.38658        -0.112930     -0.045078     -0.011694
O	      6.39311      8.43053      8.36406        -0.040143      0.158578     -0.026652
O	      6.30435      6.42255     10.34832         0.012086      0.004178      0.104154
O	      8.43745      8.49859     10.46448         0.004539      0.003312     -0.033148
