# total energy = -241.00237782 eV
 
CRYSTAL
PRIMVEC
0.001378 6.323678 6.324622 
6.299890 0.016957 6.309197 
4.201237 4.206617 0.010089 
PRIMCOORD
36 1
Li	      6.35897      6.30872     12.48292         0.003498     -0.003495     -0.000836
Li	      4.38827      6.33518     10.52510        -0.021567     -0.058358      0.003018
Li	      6.31080      8.20619     10.54390         0.057440     -0.061908     -0.049309
Li	      8.32683      4.26682      8.43114        -0.010896      0.018043     -0.007701
Li	      6.31376      4.22432      6.34996         0.011468     -0.007633     -0.023568
Li	      8.31110      6.31935     10.57995         0.005607      0.013916      0.028306
Li	      6.26957      8.41718      6.32434        -0.003548     -0.001259     -0.001398
Li	      4.13993      6.38029      6.32106        -0.062406     -0.005160      0.026512
Li	      6.32704      6.32197      8.53200         0.002139      0.022949      0.012914
Sc	      4.18165      4.25564      8.38579        -0.126348     -0.056083      0.123605
Ti	      8.40513      6.15694      6.35084         0.029426     -0.297695      0.118207
Mn	      2.07510      0.03015      2.08831         0.033817     -0.030035      0.025446
Mn	      4.27416      8.42448      8.38331        -0.003927     -0.053705     -0.035238
Mn	      6.29322      6.34300      4.24705        -0.001816      0.027734     -0.162775
Cr	      4.17810      4.26117      4.28565        -0.041893      0.024400     -0.068222
Cr	      6.31303      4.28760     10.53612        -0.137304     -0.020682      0.036904
Fe	      8.35162      2.15175      6.24133        -0.013548      0.111575     -0.030329
Co	     10.47630      6.33389      8.40489        -0.009287      0.013459      0.291291
O	      2.24326      2.19854      2.14246         0.044620      0.100882      0.028849
O	      4.26157      4.20904      2.23795         0.090100      0.244605      0.052319
O	      4.30334      2.23064      4.32747        -0.012500      0.093087     -0.118538
O	      6.18456      4.39276      4.09090         0.028532      0.141922      0.025593
O	      6.29960      2.13480      6.40129        -0.035502      0.058402      0.225198
O	      8.40739      4.27247      6.30494        -0.019701      0.235465      0.031683
O	      2.10015      4.08796      4.25580         0.061503     -0.085311     -0.004997
O	      4.12560      6.29560      4.11711         0.050417      0.025893     -0.318485
O	      4.21528      4.15381      6.29648         0.016064     -0.008604      0.017683
O	      6.47418      6.27437      6.19475        -0.003370     -0.006122      0.033558
O	      6.24929      4.14355      8.51483         0.086555     -0.178137     -0.048123
O	      8.36910      6.34748      8.26137         0.001484     -0.025998     -0.203159
O	      2.06377      6.46939      6.49609        -0.002259     -0.067683      0.052891
O	      4.08524      8.43443      6.25009         0.119743     -0.005895      0.172543
O	      4.10991      6.37379      8.43356        -0.115859     -0.008501     -0.014232
O	      6.24199      8.41226      8.41965        -0.058398     -0.080220     -0.019984
O	      6.36256      6.21318     10.50644        -0.008622     -0.053022     -0.051865
O	      8.45419      8.45310     10.57274         0.046336     -0.016823     -0.147760
