# total energy = -237.75390026 eV
 
CRYSTAL
PRIMVEC
0.026821 6.295847 6.341532 
6.445368 -0.000366 6.368345 
4.299032 4.217168 -0.002289 
PRIMCOORD
36 1
Li	      6.46676      6.34954     12.63230        -0.004611      0.004556     -0.050896
Li	     10.65389      6.33846      8.53980         0.000422     -0.114098      0.042023
Li	      8.52244      4.29348      8.56689        -0.066162     -0.008939      0.076974
Li	      8.54449      6.33900      6.41860        -0.059157     -0.037223     -0.002580
Li	      6.46621      4.23451      6.40925         0.046391     -0.020033      0.023617
Li	      0.10449      4.13076      4.17176         0.002611     -0.060410     -0.000397
Li	      2.22891      6.25989      4.24583         0.032209     -0.036129      0.008215
Li	      2.23182      4.14845      6.22474         0.004185     -0.006850      0.022632
Li	      4.34485      6.24621      6.22557         0.009909     -0.008538     -0.013794
Sc	      2.19436      6.29565      8.37057        -0.064098      0.045288     -0.076705
Ti	      4.23977      2.23230      2.00715        -0.170510      0.332594     -0.473535
Mn	      8.58891      8.39047     12.63685         0.053619      0.107018     -0.051586
Mn	      4.37980      6.29465     10.63434        -0.026027     -0.039373      0.040005
Mn	      6.36278      6.37426      4.40734        -0.087509     -0.016705      0.021754
Cr	      6.42556      2.12841      4.29773         0.120103      0.022484      0.015046
Cr	      6.49624      6.27407      8.40282         0.031292     -0.025119      0.065602
Fe	      4.47996      4.03107      8.34592        -0.067180     -0.010031      0.198955
Cu	      4.19923      4.26627      4.40302        -0.069820      0.073089      0.039093
O	      2.33187      2.07059      2.19453         0.235968      0.042628      0.022271
O	      4.38660      4.10531      2.15929         0.049226     -0.335016     -0.082681
O	      4.35249      2.22736      4.23160         0.137456     -0.156079     -0.076075
O	      6.65082      4.25259      4.21983         0.133720     -0.001948     -0.041252
O	      6.61398      2.09988      6.24180         0.039987      0.032028     -0.009230
O	      8.65793      4.04200      6.18956        -0.000765      0.009374      0.000530
O	      2.05320      4.02424      4.27356        -0.021910     -0.060819     -0.021659
O	      4.40442      6.18856      4.22311        -0.071840      0.088098     -0.026730
O	      4.28413      4.23064      6.48553        -0.022238     -0.039165     -0.118019
O	      6.46593      6.30584      6.44219        -0.000812     -0.011940      0.025651
O	      6.38453      4.27853      8.48658         0.108231      0.037975      0.029402
O	      8.51265      6.32525      8.45727        -0.103749     -0.078346     -0.005142
O	      2.17633      6.43251      6.37763        -0.024044      0.037885      0.030550
O	      4.19929      8.40102      6.49806        -0.029747      0.038258      0.478161
O	      4.36723      6.39062      8.59444         0.002305      0.065206     -0.007027
O	      6.34541      8.39481      8.52923        -0.069331      0.006563      0.015266
O	      6.33340      6.42677     10.49834         0.001867      0.024330     -0.095655
O	      8.45495      8.37348     10.40689        -0.049991      0.099386     -0.002780
