# total energy = -237.84118234 eV
 
CRYSTAL
PRIMVEC
-0.041055 6.343999 6.482938 
6.344651 -0.011222 6.451814 
4.223321 4.203017 -0.000785 
PRIMCOORD
36 1
Li	      6.49015     10.42490      8.70979         0.002159     -0.000092      0.015874
Li	      4.34383      8.23014      8.72839         0.043109     -0.043286     -0.008442
Li	      4.13230      6.37851     10.54605         0.040327     -0.032253     -0.094398
Li	      6.27924      8.50174     10.62644         0.028256      0.002402     -0.049260
Li	      6.38830      6.23549      4.45479         0.008379     -0.038109      0.036203
Li	      8.32353      6.30214      6.44542        -0.006726     -0.016758      0.056661
Li	      6.31435      4.37408      6.43115        -0.008443      0.076509      0.033563
Li	      4.08691      4.42452      8.56245        -0.022589     -0.005438     -0.039559
Li	      6.09627      6.43128      8.55025         0.004299      0.015257      0.011379
Sc	      8.38104      6.38895     10.69223        -0.180265      0.046337      0.024417
Ti	      4.37660      3.99716      4.35185         0.447644     -0.338687      0.164357
Mn	     10.55841      4.19291      6.44529         0.033433      0.040630     -0.012058
Mn	      6.34907      2.11739      8.59504         0.091406      0.092936     -0.115648
Mn	      6.29297      4.22185     10.74446        -0.025366      0.201057     -0.083176
Cr	      2.10641      2.09546      0.02695        -0.092549      0.006144      0.073352
Cr	      6.33631      8.35106      6.59683         0.036422      0.035786     -0.053282
Fe	      8.42765      4.19926      8.60326        -0.052574     -0.089929      0.000425
Ni	      4.28317      6.29526      6.60497        -0.075991      0.030244     -0.045040
O	      1.95973      2.17991      2.03964        -0.003921     -0.058801      0.056117
O	      4.11367      4.33958      2.35514         0.066610     -0.011043      0.062549
O	      4.23919      2.20074      4.29944         0.030682      0.394389     -0.004939
O	      6.18478      4.21909      4.34718        -0.443940     -0.078460     -0.005757
O	      6.45717      1.91981      6.43360         0.017977     -0.106576     -0.023811
O	      8.58333      4.10686      6.59425         0.080706      0.001557     -0.082459
O	      2.10198      4.25377      4.31417        -0.065596      0.052252      0.025104
O	      4.15167      6.47274      4.42550        -0.024484      0.075142     -0.045388
O	      4.09706      4.25822      6.29338        -0.001470     -0.126796     -0.145419
O	      6.29651      6.41023      6.46929         0.126794      0.018215      0.002530
O	      6.42907      4.09009      8.62709        -0.043325     -0.071895      0.020976
O	      8.61044      6.23827      8.63950        -0.008799      0.011176     -0.014077
O	      1.96643      6.34401      6.43260        -0.115821      0.004932     -0.010403
O	      4.17877      8.53219      6.48357        -0.001794      0.174594      0.038058
O	      4.16621      6.33646      8.55870        -0.021701     -0.018950      0.138044
O	      6.33651      8.42723      8.49754        -0.020618      0.015221      0.107851
O	      6.33057      6.14970     10.72798         0.074772     -0.189863      0.021796
O	      8.47481      8.42634     10.94341         0.082998     -0.067844     -0.056140
