# total energy = -243.18643800 eV
 
CRYSTAL
PRIMVEC
0.025159 6.254602 6.483032 
6.321201 0.017413 6.491203 
4.214520 4.175191 0.011114 
PRIMCOORD
36 1
Li	      4.20833      4.21745      0.11684         0.030044     -0.019062      0.088539
Li	      6.30165      4.19279      2.31783         0.001797     -0.043529      0.041420
Li	      4.13071      2.18495      2.21688         0.004013      0.019782      0.000646
Li	      6.29738      2.15752      4.30861         0.002424     -0.008124     -0.026060
Li	      2.20916      4.09549      2.22280         0.013968      0.012935      0.025459
Li	      6.30223      6.20257      4.29812         0.000095      0.015304      0.025976
Li	      6.29859      4.20926      6.39732         0.010265     -0.003637     -0.034667
Li	      6.35726      4.17250     10.75270         0.015808     -0.005242     -0.022652
Li	      4.22053      6.24489      6.50305        -0.008868     -0.011674      0.036691
Sc	      6.25275      8.37405      6.46741        -0.068651     -0.000850      0.077010
Ti	      2.24468      8.39376      6.52381         0.141846      0.075237     -0.010732
Mn	      8.33011      4.20847      4.29110         0.035776      0.014035     -0.003895
Mn	      4.24146      4.22052      8.61152        -0.054850     -0.064666      0.006848
Mn	      6.33044      6.22797      8.66285         0.017186      0.032842     -0.034479
Cr	      4.27737      4.17972      4.30865         0.045331     -0.031561     -0.003187
Cr	      8.42919      6.29295     10.81514        -0.009353      0.063133     -0.041828
Fe	      0.09405      2.02573      2.16633        -0.109569      0.136366      0.030454
Fe	      4.30053      2.04271      6.41219        -0.012303     -0.069069      0.103572
O	      2.05343      2.11044      1.97263         0.114496     -0.009456     -0.116494
O	      4.23065      4.24063      2.28844         0.002165     -0.104566      0.043861
O	      4.22207      2.14820      4.45484        -0.009556      0.106334     -0.116622
O	      6.24458      4.21442      4.33771        -0.089272     -0.015134     -0.003290
O	      6.31513      2.07562      6.62566         0.101090      0.009689     -0.025187
O	      8.46812      4.13405      6.48475         0.023198     -0.132710      0.044474
O	      2.17090      4.24659      4.37212         0.018799      0.002679     -0.014567
O	      4.16593      6.22102      4.23320        -0.025040     -0.003277      0.040834
O	      4.18338      4.09808      6.38955        -0.006574      0.042456     -0.035012
O	      6.45800      6.27507      6.67413        -0.059791      0.001406      0.028780
O	      6.19356      4.20676      8.67127        -0.007018      0.007979      0.001265
O	      8.55089      6.39148      8.69372        -0.043928      0.017466      0.003910
O	      2.10225      6.32914      6.34318        -0.013756      0.023088     -0.016069
O	      4.14206      8.33809      6.53886        -0.159447      0.010767     -0.011364
O	      4.18438      6.12261      8.62249         0.009852      0.026233     -0.060015
O	      6.47523      8.25425      8.58768         0.029964      0.010962     -0.035326
O	      6.42348      6.25783     10.59753         0.041623      0.005722     -0.051581
O	      8.42114      8.30313     11.00364         0.018236     -0.111857      0.063285
