# total energy = -243.64716068 eV
 
CRYSTAL
PRIMVEC
-0.015229 6.278025 6.307712 
6.391308 -0.027623 6.319846 
4.260795 4.193282 -0.018134 
PRIMCOORD
36 1
Li	      2.08243      2.09259      0.06961         0.015209      0.042636      0.059179
Li	      6.41362      4.15435      2.19536        -0.037755      0.037877     -0.028554
Li	      4.21319      2.09943      2.17626         0.004744     -0.034655     -0.022778
Li	      6.29424      2.25674      4.17367        -0.098500      0.006481     -0.021068
Li	      0.04378      2.11206      2.08391         0.024925     -0.008736      0.001981
Li	      4.33079      4.10740      4.25982        -0.002820     -0.012725     -0.006934
Li	      4.30084      2.13311      6.19908        -0.018792     -0.048159      0.012445
Li	      6.23160      4.07450      6.18647        -0.085199      0.002613     -0.017024
Li	      4.22966      6.23905      6.28450         0.017215      0.025336      0.069405
Sc	      6.33674      6.27588      8.28367        -0.140664      0.007592     -0.043563
Ti	      6.43793      0.16267      6.38283        -0.083474      0.242590      0.273768
Mn	      8.41709      4.15739      4.20776         0.011380      0.058470      0.004385
Mn	      2.14385      4.13598      2.04236         0.090173      0.013988      0.030449
Mn	      4.27812      8.35833      4.22824         0.055539      0.094093      0.024137
Mn	      2.19265      4.21727      6.36818        -0.029154     -0.059730      0.003031
Cr	      6.38592      6.21476      4.21530         0.015923     -0.024536      0.007307
Cr	      2.18817      6.31380      4.19700        -0.013021     -0.094415      0.144408
Co	      8.48010      8.34035      8.39079         0.066957     -0.136636     -0.377360
O	      2.12364      2.21889      2.22057        -0.021728      0.090083     -0.023529
O	      4.15566      4.18981      1.91801        -0.093785      0.082276     -0.331670
O	      4.11326      1.92482      4.21850        -0.016814     -0.036408      0.028653
O	      6.29330      4.26055      4.19829        -0.012976     -0.020121     -0.030626
O	      6.38531      1.98026      6.25942        -0.008963     -0.289490      0.018659
O	      8.70055      4.08924      6.15300         0.178395      0.009486     -0.012912
O	      2.25974      4.22443      4.29610         0.044503      0.008935      0.098333
O	      4.23507      6.43596      4.23259        -0.010410     -0.054365      0.013306
O	      4.10821      4.18001      6.46864        -0.037262     -0.023688     -0.672894
O	      6.34542      6.21987      6.26369         0.006689     -0.049877      0.013326
O	      6.51565      4.15262      8.53647         0.138737      0.018137      0.031850
O	      8.49330      6.15756      8.50152         0.003940     -0.287781      0.054901
O	      2.02401      6.37376      6.20484        -0.081653      0.052428     -0.045025
O	      4.46089      8.47139      6.17116        -0.000214      0.041658     -0.019425
O	      4.27164      6.18651      8.56690         0.080565      0.412837      0.118984
O	      6.34402      8.33195      8.35204        -0.110099     -0.050280     -0.118448
O	      6.51991      6.13390     10.52894         0.113230      0.035014      0.053313
O	      8.50690      8.32692     10.36225         0.035159     -0.050928      0.709990
