# total energy = -239.41334341 eV
 
CRYSTAL
PRIMVEC
-0.001749 6.349802 6.186474 
6.403785 -0.007786 6.192743 
4.261938 4.230024 0.002137 
PRIMCOORD
36 1
Li	     10.55925     10.47353     12.34162         0.041859      0.006876      0.011649
Li	      8.57255      8.58157     12.28916        -0.012508     -0.067057     -0.010091
Li	      8.50898      4.26000      4.34363        -0.007900      0.006031      0.013485
Li	      2.27067      2.18847      4.22633         0.052108      0.042698      0.065642
Li	      4.21697      4.13395      4.23687         0.038675      0.037125      0.014859
Li	      4.23798      2.10898      6.10646         0.030364      0.005784      0.001552
Li	      6.45463      4.22458      6.12490        -0.017734     -0.001655     -0.027446
Li	      0.06841      4.27753      4.18831         0.001769     -0.001583     -0.007919
Li	      2.14505      4.20469      6.05475        -0.016122      0.042057     -0.014811
Sc	      4.27740      6.34587      6.01666        -0.080189      0.010276     -0.054831
Ti	      6.33449      4.30612      2.08691        -0.086415      0.139444     -0.202917
Mn	      6.39485      2.08816      4.25153        -0.038741      0.071049      0.028624
Mn	      6.37693      2.15174      8.16685         0.023344     -0.024101     -0.040494
Mn	      8.52877      4.25884      8.23325         0.003089      0.005837     -0.070129
Mn	      6.41954      6.33024      8.19792        -0.001323     -0.005087     -0.027705
Cr	      4.29685      8.45317      8.24913        -0.035240     -0.022222      0.013994
Cr	      4.25821      4.22290      8.21389         0.031592      0.006801     -0.031787
Cu	      2.09867      6.32142      4.17838         0.061600     -0.026021      0.186313
O	      2.23862      2.02991      2.18949         0.019473     -0.075546     -0.001173
O	      4.35912      4.14637      2.08061         0.076376     -0.019893      0.042175
O	      4.44608      2.08105      4.06654        -0.031819     -0.017666      0.040389
O	      6.45366      4.02875      4.03837        -0.031087      0.011741      0.013490
O	      6.42843      2.08615      6.16475         0.005172     -0.038572     -0.149265
O	      8.52858      4.18565      6.38715         0.013867      0.002582     -0.075338
O	      2.12007      4.34011      3.95658        -0.001580     -0.110543      0.090477
O	      4.18107      6.36283      4.02167         0.048573      0.032072      0.049316
O	      4.23633      4.29642      6.26809        -0.012080     -0.012263      0.005881
O	      6.34819      6.35582      6.29025        -0.029249      0.024310     -0.038054
O	      6.29812      4.29342      8.28685        -0.019482      0.001503     -0.038442
O	      8.50897      6.41858      8.10270         0.000406      0.045106     -0.099576
O	      2.16885      6.31731      6.42293        -0.016949     -0.034711      0.312940
O	      4.25579      8.42227      6.27960         0.009918      0.007318     -0.018882
O	      4.19346      6.34660      8.26026        -0.039861     -0.019037      0.031686
O	      6.38967      8.49807      8.30442         0.006280     -0.026547     -0.012132
O	      6.43121      6.45664     10.17657        -0.021899     -0.059729     -0.000351
O	      8.35600      8.34619     10.25054         0.035712      0.063620     -0.001125
