# total energy = -244.58552395 eV
 
CRYSTAL
PRIMVEC
-0.029564 6.396403 6.374537 
6.335170 -0.016647 6.362002 
4.213109 4.245575 -0.000634 
PRIMCOORD
36 1
Li	      6.21889      0.15877      6.41603        -0.089385      0.025131      0.069279
Li	      8.29661      2.17411      6.42943         0.018691     -0.042838      0.068783
Li	      6.20047      4.34943      2.18185        -0.024656      0.047952     -0.041811
Li	      8.42241      4.29472      4.37801         0.001496      0.105361      0.117644
Li	      0.12942      2.00454      2.02420         0.020494     -0.025917      0.053872
Li	      6.30811      6.29313      4.20450         0.035097     -0.040290     -0.035368
Li	      4.29865      4.22777      4.19505         0.066667     -0.023652      0.010154
Li	      4.32903      2.02035      6.25188        -0.036087     -0.004159     -0.004887
Li	      8.37615      8.52855      8.48103        -0.036435      0.000648     -0.042279
Sc	      4.18139      2.18357      2.16065        -0.130058      0.127597      0.075423
Ti	      4.24588      6.34225      6.26334        -0.164541     -0.096723     -0.398928
Mn	      6.32846      2.09657      4.31657        -0.015755      0.016455      0.041324
Mn	      6.37338      4.12254      6.36382        -0.020440     -0.030282      0.000757
Mn	      8.40897      6.36729     10.59785         0.065026     -0.087101      0.090565
Mn	      6.28669      6.36696      8.50126         0.140409     -0.029077      0.020429
Cr	      2.11330      4.23251      2.10410         0.043513     -0.057378      0.126204
Cr	      2.14133      4.24704      6.34094         0.077979      0.144461     -0.169754
Fe	     10.39804      8.54218     10.61254         0.022093     -0.002743     -0.081936
O	      2.15074      2.20214      2.17468         0.059803     -0.028872     -0.024520
O	      4.12533      4.23410      2.13515        -0.006480     -0.033903      0.018901
O	      4.38655      2.12537      4.20068        -0.046673     -0.023353     -0.015214
O	      6.39945      4.07333      4.42671         0.025597     -0.003915      0.024851
O	      6.29980      2.12997      6.42336         0.027094     -0.025027     -0.024616
O	      8.37622      4.26847      6.49880        -0.011467     -0.056040     -0.022333
O	      1.97453      4.40408      4.25116         0.108922      0.044909      0.031297
O	      4.25829      6.40621      4.35918        -0.003668     -0.115443      0.282291
O	      4.18828      4.40165      6.36129         0.023821      0.104115     -0.069142
O	      6.25046      6.45920      6.33471        -0.027672     -0.042149     -0.057443
O	      6.36858      4.29049      8.35507        -0.046143      0.002367     -0.009827
O	      8.23150      6.26957      8.65142        -0.048557      0.059254     -0.162638
O	      2.23101      6.28964      6.25032         0.137581     -0.001575      0.086225
O	      4.31405      8.38173      6.37642         0.060634     -0.014153      0.081117
O	      4.35334      6.40821      8.33873        -0.030825     -0.023732     -0.090912
O	      6.32304      8.46976      8.33414         0.023617     -0.008278      0.028970
O	      6.21898      6.47641     10.59293        -0.039392      0.110446      0.029032
O	      8.35997      8.33029     10.59657        -0.180301      0.027905     -0.005511
