# total energy = -90.90820519 eV
 
CRYSTAL
PRIMVEC
2.196447 4.395498 2.138974 
4.314919 -2.164989 -2.126304 
0.008252 4.410544 -4.316105 
PRIMCOORD
16 1
Li	      2.24853      2.36100     -0.04598         0.064786      0.045889     -0.155070
Li	      4.52283      2.36020     -2.30865        -0.241368      0.464474     -0.163224
Li	      0.04317      2.33757     -2.27905         0.177245      0.249457     -0.225174
Li	      2.25833      4.59894     -2.18535         0.201263     -0.026766      0.031670
Mn	      0.01783      0.21732     -0.21787         2.760727     -1.659313      2.307848
Mn	      2.36072      0.27001     -2.20142        -1.200063     -0.206898     -2.002083
Ni	      2.37384      2.51899     -4.36522        -0.136156     -1.194915      0.311806
Ni	      4.57821      4.64932     -4.46921         0.030491     -0.751708      0.850259
O	      4.50515      4.65090     -2.17374        -0.337048      0.118572      0.683446
O	      4.56701      2.42112     -4.63723        -0.491600      1.146170      0.349403
O	      4.71956      2.39043     -0.00134        -1.512139      0.646127     -0.607502
O	      4.40308     -0.09807     -2.21180        -1.074019      2.325098      0.161247
O	      2.44284      4.60486      0.09254         0.320976     -0.187292     -1.633518
O	      2.30685      2.11059     -2.26028         0.696406      0.342422     -0.184492
O	      2.28238      7.15231     -2.28577         0.262201     -1.050044     -0.503578
O	      2.19634      0.21492     -0.32309         0.478298     -0.261273      0.778961
