# total energy = -246.80714591 eV
 
CRYSTAL
PRIMVEC
-0.003492 6.267236 6.324501 
6.553748 0.013866 6.307401 
4.384905 4.180579 -0.005181 
PRIMCOORD
36 1
Li	      8.69957      8.32295     12.60599         0.042424     -0.009747     -0.008745
Li	      4.54805      8.27672      8.56438         0.012964      0.020197     -0.012320
Li	      6.45422      8.40128     10.35599        -0.060470     -0.004448      0.057599
Li	      6.55373      6.17529      4.23828         0.012776      0.000117      0.038819
Li	      4.39579      4.18897      4.30182        -0.021382      0.025828      0.013324
Li	      6.59361      8.37542      6.35277         0.063263     -0.005156     -0.033237
Li	      4.52675      6.21476      6.38711        -0.002318      0.049748     -0.035246
Li	      8.61852      8.46561      8.39351        -0.102236      0.011234     -0.033927
Li	      6.38707      6.38279      8.34358        -0.029279      0.059827      0.016328
Sc	      4.28278      2.22648      6.28910        -0.090221      0.071637     -0.031561
Ti	      4.39725     10.25610      6.30953         0.138350     -0.398966      0.043284
Mn	      6.60341     10.37920      8.41478        -0.023234     -0.043350      0.009914
Mn	      0.03332      2.09375      2.14168         0.028099     -0.078208      0.142333
Mn	      2.27080      4.03602      2.16027         0.083962     -0.051850     -0.013692
Mn	      6.48226      4.22793      6.33732        -0.043248      0.069883     -0.021877
Mn	      8.75757      6.35689     10.49848         0.025157      0.039129      0.018449
Cr	      8.71875      4.19069      4.17892         0.011690     -0.020639      0.013534
Cr	      6.57003      4.21285     10.46181        -0.030690     -0.045475      0.064364
O	      2.00454      1.93407      2.10402        -0.017521     -0.034876     -0.001688
O	      4.47066      4.07760      1.93565         0.086902     -0.014765     -0.089393
O	      4.36378      2.00854      4.26280         0.003900     -0.003936      0.059558
O	      6.72236      4.12798      4.34699        -0.005137     -0.006993      0.149056
O	      6.48713      2.18838      6.46786         0.005160     -0.057044     -0.044301
O	      8.93602      4.19642      6.26431         0.137347     -0.005029     -0.022604
O	      2.04899      4.38599      4.22009        -0.040690      0.000448     -0.002691
O	      4.42837      6.37297      4.08250         0.018497      0.009118     -0.056670
O	      4.38025      4.20585      6.27990        -0.064778     -0.053750      0.041360
O	      6.60700      6.14491      6.34295         0.025806      0.015818      0.030089
O	      6.67210      4.27462      8.40283        -0.046018      0.014356     -0.075874
O	      8.97128      6.27187      8.50324         0.029179      0.045279     -0.044495
O	      1.93071      6.33226      6.15875        -0.134327      0.005981     -0.068690
O	      4.37438      8.41842      6.19006         0.031661      0.405788     -0.047211
O	      4.18815      6.30721      8.52751        -0.023005     -0.005861     -0.004249
O	      6.57526      8.48235      8.39168        -0.011318     -0.000291      0.032442
O	      6.41767      6.25780     10.60451        -0.029995     -0.011064     -0.034988
O	      8.93112      8.34466     10.50121         0.018733      0.007062     -0.046994
