# total energy = -242.55226558 eV
 
CRYSTAL
PRIMVEC
0.055261 6.327930 6.296997 
6.436284 0.043318 6.309343 
4.315919 4.252195 0.003651 
PRIMCOORD
36 1
Li	      8.54891      2.22922      6.27232        -0.082820      0.043429     -0.011887
Li	      8.61395      4.25787      4.25216        -0.059549     -0.027148      0.049629
Li	      6.45217      2.15041      4.24613         0.009337     -0.021090      0.097887
Li	      8.61796      6.38095      6.33210         0.056222     -0.021285      0.067177
Li	      6.52610      4.23536      6.33776         0.046540     -0.020288      0.016856
Li	      6.45826      4.31483     10.45448        -0.035042      0.065827     -0.083267
Li	      6.52431      8.44547      6.32228         0.045757     -0.061053      0.037072
Li	      4.38105      4.22069      8.36977         0.099901     -0.076679     -0.089739
Li	      6.50053      6.32788      8.43115         0.050258     -0.101854      0.034827
Sc	     10.64218      4.25172      6.25575        -0.032215      0.022504      0.121905
Ti	      6.63455     10.45839      8.42936         0.077916     -0.313555      0.053667
Mn	      2.20280      2.16102      4.25087        -0.082372     -0.010285      0.002335
V	      6.45565      2.26911      8.33158        -0.042807      0.257247      0.116702
V	      4.33027      4.19874      4.26218         0.004181      0.129398     -0.068692
V	      8.56213      6.51463     10.46358         0.041731      0.000066     -0.132375
V	      4.39413      6.35993      6.30453        -0.140845     -0.006020     -0.074427
Co	      4.39529      8.44890      8.39912        -0.013094     -0.061194      0.059892
Co	      8.49823      4.34010      8.33989         0.304334     -0.078918      0.321922
O	      2.12773      2.06953      2.21365         0.107457      0.031255      0.057881
O	      4.42495      4.35349      2.13712         0.008569     -0.122970     -0.072527
O	      4.27737      2.26772      4.16894        -0.093773     -0.152074     -0.054198
O	      6.42825      4.27440      4.06267         0.098571      0.113304     -0.050704
O	      6.43458      2.08096      6.41917        -0.001371     -0.030172     -0.194447
O	      8.65369      4.26636      6.30599        -0.256970      0.034771      0.287149
O	      2.26962      4.33505      4.18254        -0.229334     -0.083735     -0.414277
O	      4.22986      6.27631      4.16432         0.145966      0.058294     -0.000001
O	      4.32159      4.37013      6.19601        -0.038843     -0.027986      0.072241
O	      6.31416      6.38644      6.20962         0.223955      0.077122     -0.186059
O	      6.48181      4.18457      8.43172         0.136169     -0.084293     -0.107180
O	      8.67409      6.40841      8.52927        -0.013550     -0.017218     -0.195531
O	      2.25318      6.34696      6.33732        -0.036261     -0.038831      0.134042
O	      4.33731      8.39788      6.36479        -0.033446      0.049175      0.046769
O	      4.21831      6.32196      8.38041        -0.086325      0.096471      0.116863
O	      6.47023      8.62396      8.40363        -0.038988      0.287483     -0.003101
O	      6.63336      6.35332     10.52174        -0.156204     -0.060377     -0.024679
O	      8.65738      8.26743     10.52880         0.016946      0.150679      0.068274
