# total energy = -247.66090209 eV
 
CRYSTAL
PRIMVEC
0.022205 6.402925 6.460369 
6.267258 0.060722 6.422193 
4.186015 4.250797 0.032479 
PRIMCOORD
36 1
Li	      4.27931     10.61145      6.54724        -0.015930     -0.035489      0.051947
Li	      4.22919      8.56212      8.58517         0.000259      0.046157     -0.044436
Li	      2.11108      4.23668      2.30374         0.038073      0.035978      0.039190
Li	      2.03621      2.29697      4.37449         0.014091      0.075614      0.089664
Li	      6.25030      4.34611      6.47423         0.003852      0.000839      0.000758
Li	      0.20488      4.25051      4.31887         0.001024      0.018305      0.031860
Li	      2.08705      6.27098      4.42020         0.002958      0.011339      0.052084
Li	      2.05023      4.30079      6.35306        -0.008726     -0.005441      0.012696
Li	      4.24481      6.40940      6.40980        -0.006645      0.006566     -0.035008
Sc	      8.32255      6.37812      6.46595        -0.068666      0.021193     -0.004715
Ti	      0.07806      2.19961      2.25237         0.012919     -0.051799      0.257143
Mn	      4.17636      4.34885      8.46089        -0.015248     -0.089372     -0.027640
V	      2.26205      8.46629      6.48573         0.142815      0.314010     -0.186210
V	      8.31775      4.29851      4.30326         0.073781     -0.148291      0.164617
V	      6.28627      8.53526     10.76555         0.048031     -0.156028      0.048243
V	      4.08804      4.31829      4.30304        -0.022446     -0.026785      0.081760
Cr	      6.28225      6.40954      8.59852        -0.081889     -0.107623     -0.011436
Co	      2.10745      6.43473      8.56042        -0.047523     -0.225425     -0.388647
O	      1.99287      2.20664      2.02240        -0.151806     -0.084541      0.015539
O	      4.24143      4.40800      2.24292        -0.474421      0.410450      0.235152
O	      4.21126      2.15212      4.31205        -0.028009     -0.022190     -0.012800
O	      6.26338      4.18543      4.16524         0.157392     -0.072473      0.598310
O	      6.32775      2.17787      6.49849         0.033022      0.004864     -0.033334
O	      8.34425      4.23490      6.28024        -0.012199      0.027203      0.039842
O	      2.18777      4.27846      4.33169        -0.056909      0.029938     -0.036234
O	      4.21977      6.39902      4.16379         0.025307     -0.038200     -0.360236
O	      4.22847      4.24225      6.31128         0.029591     -0.096338     -0.054759
O	      6.30033      6.40181      6.60193         0.031240     -0.049632      0.062158
O	      6.29681      4.25751      8.62006        -0.064467     -0.043441     -0.015943
O	      8.40082      6.40004      8.55809         0.042646      0.031898     -0.066709
O	      2.10281      6.54799      6.58064         0.106625      0.027207     -0.531832
O	      4.02746      8.56098      6.47961        -0.126738      0.004183     -0.012815
O	      4.21605      6.44790      8.69538         0.535513      0.041018      0.052669
O	      6.26839      8.41614      8.68893        -0.016125      0.106108      0.060634
O	      6.20520      6.51909     10.64802        -0.110409      0.006998     -0.077373
O	      8.27352      8.59712     10.89289         0.009018      0.033200      0.005861
