# total energy = -249.36074592 eV
 
CRYSTAL
PRIMVEC
0.030573 6.385266 6.466142 
6.257650 0.042784 6.454338 
4.183419 4.260779 0.016850 
PRIMCOORD
36 1
Li	      8.32624      2.19474      6.47374         0.021997      0.028709     -0.035568
Li	      6.20666      4.29378      2.24037         0.026268     -0.002906      0.037477
Li	      6.26540      8.52521     10.75403        -0.005114     -0.003834     -0.006202
Li	      2.11807      4.30370      2.24054        -0.000934     -0.007419      0.120042
Li	      4.17105      4.25866      4.24370         0.012277     -0.000755      0.006673
Li	      8.39962      6.38930      6.49750         0.016661      0.030301      0.000416
Li	      6.28952      4.31244     10.68103         0.000463      0.021348     -0.005758
Li	      8.35970      6.44142     10.71448        -0.031202     -0.002253      0.003729
Li	      8.35881      8.47245      8.68519         0.010761      0.007498      0.009253
Sc	      6.27026      4.22348      6.50501         0.019326     -0.009793     -0.026467
Ti	      2.16736      4.34360      6.41571         0.102272      0.084350     -0.169685
Mn	      4.12626      6.45079      6.42646        -0.090804     -0.023873     -0.015122
V	      4.14953      2.23224      2.15145        -0.038806     -0.058881      0.094688
V	      8.40514     10.53386     10.75126         0.045182      0.006986     -0.042282
V	      4.14896      6.36118      2.22031         0.021341      0.045989      0.001880
V	      2.10015      2.13962      4.30304         0.001241      0.001952     -0.010000
Cr	      6.37988      6.41068      8.66491         0.000408     -0.024383     -0.032083
Fe	      6.20893      0.10037      6.44706         0.052295      0.005507      0.011662
O	      2.08833      2.13258      2.22260        -0.025667     -0.013368     -0.065475
O	      4.18138      4.22777      2.18337         0.014123      0.036454      0.090276
O	      4.09891      2.02549      4.22155         0.087360     -0.011640     -0.009811
O	      6.34386      4.34239      4.35742        -0.034410      0.006922     -0.000156
O	      6.27985      2.21051      6.60957         0.011858      0.017844      0.021319
O	      8.36669      4.31009      6.27395        -0.141201      0.014517     -0.042129
O	      2.10881      4.13794      4.50840         0.010232      0.029500      0.124854
O	      4.28419      6.37365      4.23825        -0.081081      0.045199      0.016501
O	      4.11677      4.27579      6.47279        -0.142004     -0.013105     -0.003297
O	      6.31639      6.44181      6.53334         0.059411      0.025026      0.042010
O	      6.30938      4.35013      8.56680         0.011007      0.029052      0.034536
O	      8.40268      6.41425      8.70425        -0.051422     -0.016297     -0.035882
O	      2.05053      6.24162      6.42714         0.070341     -0.137226     -0.007837
O	      4.30982      8.53150      6.53338        -0.038328     -0.019374      0.039231
O	      4.32308      6.52258      8.70624        -0.071706     -0.042406     -0.042123
O	      6.24946      8.43815      8.49154         0.073845      0.030573     -0.077294
O	      6.18704      6.45769     10.65413         0.072435     -0.015295     -0.015596
O	      8.33960      8.76533     10.74802         0.011577     -0.064917     -0.011778
