# total energy = -251.05858175 eV
 
CRYSTAL
PRIMVEC
0.006555 6.392999 6.313332 
6.363418 -0.011551 6.331416 
4.234098 4.265457 0.000802 
PRIMCOORD
36 1
Li	      8.45011      2.14161      6.33711        -0.010813      0.021142      0.011622
Li	      8.34054      4.36422      8.39620        -0.008838      0.043667     -0.011844
Li	      4.13428      4.33066      4.42927        -0.026955     -0.025026      0.025780
Li	      8.35229      6.41825      6.39125         0.014022     -0.003983     -0.025018
Li	      6.36187      4.35040      6.39498         0.008315      0.019221     -0.014192
Li	      2.21014      6.27802      4.25492        -0.047070     -0.070618      0.040078
Li	      2.27148      4.22419      6.25653        -0.025791     -0.029009      0.004164
Li	      4.25245      6.25489      6.24941         0.027042      0.005887      0.014795
Li	      6.48495      6.28090      8.24153         0.027740     -0.021245     -0.042142
Sc	      6.36102      0.02027      6.30706        -0.008249      0.059052     -0.068820
Ti	      4.27325      8.47889      8.32478         0.131017     -0.007539     -0.025730
Mn	      6.36804      2.20395      4.34750        -0.031148     -0.001061     -0.006285
V	     10.55999      6.39106      8.43600        -0.054956      0.045892      0.014125
V	      6.34883      6.44354      4.34845         0.014603      0.027564      0.063139
V	      4.26539      8.49686      4.23502         0.076603      0.036922     -0.025140
V	      4.26813      4.20203      8.29906        -0.090191     -0.044527     -0.076178
Cr	      2.12259      6.39044      8.36329         0.029615     -0.043589      0.017835
Cr	      4.25404      0.01011      4.24758        -0.014959      0.045044      0.040144
O	      2.17198      2.02350      2.17156        -0.023876      0.000671     -0.088574
O	      4.30115      4.13979      2.11397         0.030213     -0.005802     -0.040347
O	      4.22109      2.04457      4.07604         0.034802     -0.007334     -0.098577
O	      6.46586      4.35351      4.11032         0.003415     -0.043129     -0.082832
O	      6.41157      2.08397      6.44569         0.014628     -0.022500      0.084848
O	      8.52521      4.25674      6.21982         0.030554      0.007642     -0.008263
O	      2.01712      4.17310      4.18509         0.013433      0.089691      0.005111
O	      4.25145      6.47149      4.15350        -0.062487     -0.032771     -0.086206
O	      4.24078      4.26749      6.40914         0.050811     -0.027687      0.066113
O	      6.35750      6.38118      6.23535        -0.031191      0.021505      0.035949
O	      6.32813      4.19210      8.50137         0.052723     -0.052158     -0.002573
O	      8.59528      6.49291      8.46924         0.015435     -0.041529     -0.020329
O	      2.07828      6.39679      6.39534        -0.019799     -0.017556      0.038223
O	      4.20220      8.52690      6.43693        -0.019845      0.012986      0.188050
O	      4.16475      6.44994      8.46261         0.012170      0.063309      0.033849
O	      6.24626      8.59901      8.42907        -0.103833      0.015040     -0.028953
O	      6.30546      6.31833     10.53667        -0.027085     -0.010721      0.038297
O	      8.54965      8.65543     10.42593         0.019945     -0.007450      0.029882
