# total energy = -242.28867358 eV
 
CRYSTAL
PRIMVEC
0.038328 6.291599 6.499167 
6.338490 0.057412 6.480193 
4.232792 4.189000 0.030921 
PRIMCOORD
36 1
Li	      0.06254      6.28861      6.51796         0.009172     -0.022393      0.040635
Li	      2.20039      8.33103      6.51214         0.022068     -0.001214      0.009527
Li	      2.14971      6.30533      8.51730        -0.043691      0.006254     -0.081117
Li	      6.41880      8.37086     10.84175        -0.010330      0.028476      0.030868
Li	      8.45840      4.30459      8.61955         0.058856     -0.048437     -0.031793
Li	      8.46569      6.29620      6.64917         0.008596      0.034550      0.069490
Li	      0.06735      4.21030      4.34059         0.012305     -0.020139      0.011309
Li	      2.09628      4.27730      6.51486        -0.051283      0.003964     -0.008599
Li	      8.46332      8.40418      8.68393         0.031747      0.025637      0.007438
Sc	      4.20565      4.20095      4.32927         0.008060     -0.069670     -0.072120
Ti	      8.61818     10.37242     10.85334         0.092941     -0.288665     -0.025089
Mn	      4.19548      6.30058      6.56102        -0.026376      0.042679      0.021466
V	      4.37852      8.39544      8.63369        -0.192468      0.179550      0.023441
V	      6.34578      2.19431      8.59940         0.206224     -0.229572     -0.027279
V	      2.12329      2.15474      4.28037         0.024236     -0.038998     -0.049714
V	      6.39761      4.15260      6.52677        -0.018014      0.024113     -0.078577
Fe	      8.39601      6.37617     10.84291         0.020816      0.029286      0.034634
Cu	      6.53261      6.36080      8.69205         0.085830      0.118367      0.037332
O	      2.15403      2.11988      2.28497        -0.074665     -0.010837     -0.035347
O	      4.26310      4.19631      2.19808        -0.026542      0.111175      0.037943
O	      4.21194      2.10387      4.20624        -0.002061     -0.034104      0.085025
O	      6.37999      4.27372      4.46752         0.015229     -0.045985     -0.010716
O	      6.31444      2.32131      6.51022        -0.009306     -0.090582     -0.002906
O	      8.32652      4.29946      6.33648         0.046691      0.013697     -0.069986
O	      2.14746      4.11074      4.39297         0.015828      0.083517      0.014819
O	      4.29384      6.30061      4.24317        -0.049014      0.006008      0.018506
O	      4.32011      4.31207      6.47005        -0.034971     -0.026540     -0.006372
O	      6.21515      6.17227      6.36653        -0.022839      0.063825      0.076741
O	      6.41843      4.17616      8.47884         0.009085      0.218710      0.059484
O	      8.62355      6.35204      8.74551        -0.240738     -0.021883     -0.075839
O	      2.26563      6.30038      6.42092         0.002061     -0.005745      0.059128
O	      4.22997      8.25283      6.72493        -0.014616     -0.017677     -0.154343
O	      4.12891      6.40884      8.83348         0.004358     -0.229391      0.112801
O	      6.16142      8.40985      8.68418         0.331438     -0.140460      0.025167
O	      6.23935      6.32260     10.94679        -0.216559     -0.015172     -0.033678
O	      8.46934      8.54615     10.80922         0.027929      0.367655     -0.012278
