# total energy = -241.45703592 eV
 
CRYSTAL
PRIMVEC
0.022866 6.337791 6.444767 
6.354921 0.039600 6.427703 
4.245761 4.222907 0.017398 
PRIMCOORD
36 1
Li	      6.44512      8.42016     10.73610        -0.020044     -0.018695      0.018621
Li	      8.40489      4.32108      8.56764        -0.040296      0.012386     -0.057735
Li	      8.46480      6.35769      6.52764        -0.062089      0.055809     -0.016164
Li	      6.35233      4.30481      6.53674        -0.014649      0.014937      0.000207
Li	      6.40507      4.25163     10.64184         0.000691     -0.031819     -0.043705
Li	      8.42774      6.39886     10.70271        -0.042443      0.040240     -0.025882
Li	      4.29212      6.31630      6.46859         0.007516     -0.012984     -0.042022
Li	      4.28642      4.23279      8.50547         0.049494     -0.041668     -0.141569
Li	      6.41585      6.29745      8.56359         0.036870     -0.062551     -0.017692
Sc	      4.26345      4.26074      4.38694         0.092838     -0.093451      0.358867
Ti	      4.42174      6.29323     10.75079         0.320503      0.090906      0.289869
Mn	      2.19926      6.28604      8.56535         0.018507     -0.021282     -0.021838
V	      4.28386      8.45379      8.59439        -0.046232     -0.068058      0.197882
V	     10.44083      6.50935      8.57302        -0.149219     -0.028607      0.011664
V	      6.35323      6.37146      4.36332         0.042375     -0.250424     -0.131590
V	      6.36651      8.42498      6.44603        -0.318840      0.346520      0.180165
Fe	      8.47407      8.45953     12.81390         0.277929      0.086589      0.086500
Ni	      6.33974      0.06981      6.42553        -0.046618     -0.125786     -0.064445
O	      2.14683      2.14479      2.16628         0.135552      0.024777      0.090945
O	      4.23481      4.24216      2.17636         0.014991     -0.286907      0.018398
O	      4.22398      2.08945      4.23604         0.042356     -0.080584      0.213469
O	      6.40457      4.34660      4.33742         0.052806      0.041027     -0.076982
O	      6.46558      2.12813      6.57197        -0.059399      0.112694      0.003025
O	      8.51861      4.18226      6.30487        -0.125848      0.056280     -0.082254
O	      2.15576      4.16847      4.36271        -0.113937     -0.040657      0.200685
O	      4.29036      6.33794      4.15837        -0.114366      0.012894     -0.024790
O	      4.13051      4.27705      6.40006         0.496963      0.022453     -0.100323
O	      6.32912      6.43513      6.34084         0.110227      0.035777      0.005203
O	      6.40266      4.09928      8.56086         0.001133      0.139746      0.016678
O	      8.66355      6.32911      8.58077         0.006562      0.018654      0.034718
O	      2.09170      6.36983      6.38655         0.128988     -0.186488      0.077084
O	      4.20973      8.48090      6.55564        -0.300035     -0.062966     -0.166669
O	      4.29679      6.40933      8.78068        -0.036261      0.266875     -0.197063
O	      6.27148      8.41994      8.50115        -0.080775     -0.072484     -0.300577
O	      6.27328      6.38577     10.76656        -0.294892     -0.042824     -0.161038
O	      8.46516      8.61246     10.82489         0.029639      0.149673     -0.131643
