# total energy = -89.24126757 eV
 
CRYSTAL
PRIMVEC
1.965143 4.018124 1.939608 
3.862391 -1.979984 -1.928709 
0.005267 4.038341 -3.924055 
PRIMCOORD
16 1
Li	      1.85071      2.00193     -0.07955        -0.066080     -0.702157      0.442885
Li	      3.68517      3.87593     -0.04487         0.945631     -0.205768      0.126029
Li	      3.67006      1.95819     -1.81570         0.630686     -0.219390      0.087526
Li	      1.90455      3.74475     -1.80607        -0.538531      1.004710      0.184142
Mn	      1.87959      3.83057      1.79697        -2.007933      1.400883      5.385103
Mn	      1.83169      1.92712     -3.68490        -1.316607     -3.538193     -4.620997
Ni	      0.01758      1.88932     -1.82300        -3.149141      0.111706      0.303594
Ni	      3.67018      3.86252     -3.72462         1.614742      1.712265     -2.396139
O	      3.70415      4.01283     -1.90034         1.313608      0.442270      1.915203
O	      3.58750      1.96806     -3.78270         2.852473     -1.629243     -1.148893
O	      3.78368      1.87320      0.08209         0.959246     -0.153838      0.678463
O	      3.71100     -0.16501     -1.81863         0.603066     -1.850713     -0.155807
O	      1.81616      3.84407      0.10716        -0.067486      0.337993     -2.205475
O	      1.85881      1.92986     -1.97908         0.973337     -0.802950      3.189194
O	      1.94027      5.86191     -1.86925        -1.166737      1.430493     -0.774966
O	      1.76927      3.70215     -3.71859        -1.580277      2.661933     -1.009862
