# total energy = -248.09574224 eV
 
CRYSTAL
PRIMVEC
0.039040 6.413682 6.351913 
6.371736 -0.001637 6.392642 
4.236550 4.292057 0.010182 
PRIMCOORD
36 1
Li	      4.31392     10.66651      6.37273         0.012747     -0.004070      0.019888
Li	     10.56539      6.42235      8.53667         0.008593     -0.071357      0.004052
Li	      6.35328      6.44369      4.37615        -0.007354      0.041009      0.019137
Li	      4.22975      4.33583      4.34212        -0.018833      0.002004     -0.082002
Li	      6.25798      4.38631      6.34127        -0.007445      0.050716     -0.033404
Li	      2.16476      6.35017      4.22071        -0.004429     -0.028041     -0.008739
Li	      2.23084      4.29507      6.26918         0.004169      0.012928     -0.040132
Li	      4.33791      6.24498      6.35799         0.012970     -0.040563      0.020693
Li	      4.29669      4.27321      8.37884        -0.002114      0.088173     -0.002179
Sc	      4.22824      2.30307      6.39354        -0.014073      0.000694     -0.037988
Ti	      2.16098      8.43829      6.37760        -0.078823     -0.319024      0.048459
Mn	      6.34087     10.65881      8.47319        -0.041955     -0.011174      0.016127
V	      8.47558      4.29772      4.32718        -0.080843      0.011701     -0.084312
V	      6.43758      8.55435     10.64186         0.029347      0.003327     -0.074628
V	      2.18174      4.30647      2.11371        -0.039883     -0.072087      0.042822
V	      4.31489      8.37419      4.25287         0.083066     -0.233630      0.007316
V	      6.37729      6.43604      8.46293        -0.176849     -0.007443      0.034821
Co	      4.23658      2.16063      2.12743         0.049635     -0.004392      0.077593
O	      2.10313      2.19099      1.96981         0.098681      0.106214     -0.154740
O	      4.14754      4.23447      2.15514         0.101271      0.025220     -0.027676
O	      4.30027      2.08385      4.28083        -0.050029     -0.012869      0.017806
O	      6.47835      4.15255      4.26114         0.032645     -0.018049      0.064917
O	      6.47524      2.12766      6.28889         0.039010     -0.021298      0.043829
O	      8.48511      4.22851      6.40170         0.010260     -0.019878     -0.110470
O	      1.99143      4.29434      4.14711        -0.083139      0.011074      0.155565
O	      4.25951      6.61868      4.21026        -0.005837      0.171014      0.031927
O	      4.25984      4.26144      6.36042         0.007782     -0.069947     -0.047314
O	      6.39860      6.43719      6.47404         0.086650     -0.006166     -0.073081
O	      6.47841      4.39003      8.64826        -0.004917      0.027129      0.040983
O	      8.47215      6.38635      8.48286         0.084137     -0.074450     -0.040515
O	      2.15402      6.58287      6.33903         0.003265      0.327006     -0.006874
O	      4.15784      8.61452      6.23411        -0.084004      0.009496      0.047548
O	      4.30957      6.45847      8.61805         0.102393      0.065958      0.001545
O	      6.41876      8.47152      8.62189        -0.087866      0.028787     -0.037707
O	      6.31369      6.44334     10.57689         0.029630      0.005491      0.046523
O	      8.59452      8.60438     10.73072        -0.007858      0.026497      0.120208
