# total energy = -244.42428203 eV
 
CRYSTAL
PRIMVEC
0.006178 6.382087 6.246093 
6.365323 -0.007524 6.259849 
4.228221 4.248556 0.010416 
PRIMCOORD
36 1
Li	      6.40354      6.37183     12.44209         0.001470      0.000572      0.017126
Li	      6.27607      4.18041      2.10695        -0.019336     -0.034307     -0.013337
Li	      4.31554      8.57791      8.32664        -0.009486      0.010257     -0.007533
Li	      6.42895      8.39567     10.24979        -0.056282      0.066465     -0.035123
Li	      2.11182      2.12047      4.09163         0.043513     -0.014059     -0.002546
Li	      6.33631      4.34576     10.34241        -0.024586      0.038270     -0.020432
Li	      8.31064      6.44642     10.36562        -0.002284     -0.028563      0.010327
Li	      8.38657      8.41474      8.44889        -0.034115      0.023849     -0.009794
Li	      6.43999      6.46631      8.45353        -0.025341      0.005731     -0.054219
Sc	      4.35249      6.36665     10.28963        -0.093774      0.045342     -0.078898
Ti	      4.18263      6.40327      6.31504        -0.117496      0.080960      0.169417
Mn	      4.29194      4.21645      4.10804         0.020063     -0.011811      0.090710
V	      8.46393      8.46296     12.47687        -0.010933      0.025616      0.017608
V	      2.12793      4.23254      2.15545         0.000974      0.031966     -0.031006
V	      4.29386      2.12651      6.27945        -0.039133      0.041130      0.036318
V	      6.33949      4.29830      6.29365        -0.024235      0.033524      0.026229
V	      6.31842      8.51894      6.31016         0.016951     -0.049357     -0.029116
Ni	      4.22861      6.37125      2.19005         0.015296      0.002559      0.044705
O	      2.08064      2.21171      1.99228         0.102658     -0.031855     -0.080375
O	      4.12861      4.29372      2.01999         0.061509     -0.076470      0.029983
O	      4.25910      2.18347      4.29049         0.001752      0.075582      0.017890
O	      6.31696      4.27320      4.29690        -0.103367     -0.010406     -0.002235
O	      6.35496      2.27152      6.31434         0.067770     -0.062774     -0.052680
O	      8.41196      4.25692      6.26583         0.075507     -0.056667     -0.032821
O	      2.25844      4.21996      4.24503         0.128992     -0.014498     -0.027302
O	      4.30484      6.22262      4.31648        -0.033004     -0.093444      0.077869
O	      4.22641      4.26921      6.34791         0.065502      0.072602     -0.033029
O	      6.39856      6.38869      6.29973        -0.064129     -0.044743     -0.020248
O	      6.47055      4.20207      8.29724         0.010969      0.063047      0.046592
O	      8.50731      6.27511      8.28340        -0.029388     -0.007373     -0.018706
O	      2.24091      6.33579      6.24769         0.153722      0.120187     -0.039601
O	      4.18701      8.32619      6.22376        -0.109466     -0.172883     -0.037026
O	      4.24693      6.35570      8.21484        -0.039802      0.033318     -0.202932
O	      6.30442      8.52070      8.18773         0.028209     -0.030420      0.167896
O	      6.30232      6.38333     10.43634         0.008654     -0.022531      0.019668
O	      8.44992      8.54222     10.51543         0.032645     -0.008819      0.056621
