# total energy = -243.50382029 eV
 
CRYSTAL
PRIMVEC
0.016979 6.416614 6.269120 
6.445576 -0.012572 6.297867 
4.291237 4.291570 -0.002234 
PRIMCOORD
36 1
Li	      6.36431      0.22867      6.30457        -0.016762     -0.012593     -0.004415
Li	      8.38519      2.18229      6.36255         0.024391      0.012537      0.000327
Li	      6.39424      4.32015      2.09500         0.013768      0.029652     -0.018206
Li	      6.37816      2.19386      4.34655        -0.016855      0.046962     -0.051618
Li	      6.36633      2.08222      8.26135        -0.010592     -0.012391      0.046382
Li	      8.63016      4.29941      8.23813        -0.022336     -0.006534     -0.032371
Li	      4.41133      4.28890      4.16359         0.078985      0.026944     -0.017943
Li	      4.50945      2.07409      6.29347        -0.070569      0.046895     -0.020909
Li	      8.69449      8.44584      8.38295         0.010481     -0.036870     -0.001219
Sc	      6.50457      6.37186      8.37330        -0.004436     -0.054123     -0.055579
Ti	      4.25759      2.37217      2.12748        -0.049256      0.430152      0.069757
Mn	      8.54546      4.25793      4.22239         0.018177      0.004876     -0.001465
Mn	      8.60082      6.41194     10.46901         0.016140     -0.048057      0.058288
V	      2.16832      2.09712      4.10465        -0.039222      0.050800      0.049915
V	     10.67968      8.50758     10.46834         0.177542      0.034265      0.055350
V	      2.24043      4.26424      6.30721        -0.066970     -0.055735     -0.013091
V	      4.25863      6.35548      6.32553         0.261221      0.026034      0.021994
Cu	      6.50707      4.07328      6.36390        -0.067751      0.225937      0.065911
O	      2.31816      2.18915      2.12922         0.139916      0.028424     -0.054417
O	      4.30884      4.18849      2.03642         0.008149     -0.422743     -0.019669
O	      4.26717      2.21897      4.04561         0.044913      0.012639     -0.150897
O	      6.57651      4.45267      4.11668         0.007105     -0.058411     -0.074327
O	      6.43337      2.19503      6.29048        -0.040282     -0.250304     -0.008443
O	      8.51610      4.28729      6.13071         0.118577      0.042286     -0.062645
O	      2.01024      4.23918      4.29057         0.076009      0.108596      0.006578
O	      4.36972      6.44337      4.24000        -0.040814     -0.104751      0.030751
O	      4.20452      4.36789      6.29919         0.005508     -0.070592      0.001066
O	      6.35374      6.41769      6.23304         0.034302      0.032239      0.018536
O	      6.45275      4.31040      8.52326        -0.022167     -0.028149      0.036547
O	      8.53932      6.41431      8.51873         0.009959     -0.038381      0.047337
O	      2.28209      6.34501      6.16967        -0.173236      0.010044     -0.091900
O	      4.41970      8.41350      6.30317        -0.019107      0.018860      0.081994
O	      4.35550      6.49622      8.43672        -0.047369      0.005203     -0.015915
O	      6.31156      8.52963      8.28824        -0.036856      0.003072      0.047724
O	      6.33771      6.32274     10.48239        -0.063764      0.074205      0.054041
O	      8.75520      8.42909     10.50884        -0.236798     -0.070988      0.002530
