# total energy = -247.99195491 eV
 
CRYSTAL
PRIMVEC
0.007638 6.433524 6.381367 
6.338747 0.030068 6.359233 
4.240733 4.288718 0.005074 
PRIMCOORD
36 1
Li	      4.24784      4.28977      0.01664         0.014710     -0.019196     -0.010746
Li	      2.06381      6.43807      8.42201        -0.014723      0.019812     -0.033532
Li	      6.41853      8.48768     10.65930         0.004742     -0.030545      0.014947
Li	     10.49518      6.42808      8.49766        -0.047491      0.008098      0.041413
Li	      8.51280      4.37863      8.48341         0.028184     -0.003711      0.020876
Li	      8.51979      6.41067      6.49146         0.001086      0.009250      0.034648
Li	      0.09531      4.31924      4.25803         0.016607     -0.000750     -0.034965
Li	      8.31335      6.44924     10.60866        -0.065190     -0.005281      0.010012
Li	      2.04437      4.35065      6.33281        -0.009449      0.004530     -0.032602
Sc	      4.20614      4.29667      4.23787        -0.049089     -0.005750      0.023997
Ti	      2.10585      8.50177      6.40120        -0.015652     -0.197226      0.157426
Mn	      4.18183      6.47748      6.31986        -0.027161     -0.030699     -0.046311
Mn	      2.10495      2.18829      4.22766        -0.029753      0.030514     -0.011241
V	      4.30548      8.64855      8.45048        -0.076323      0.098655     -0.035752
V	      6.37416      4.27505      6.44860        -0.027748     -0.027502      0.048442
V	      8.42679      8.56812      8.54181         0.049119     -0.078240     -0.026368
V	      6.42428      6.43661      8.50934        -0.002820      0.037162      0.052194
Fe	      4.32990      6.45215     10.68433        -0.113369      0.070867     -0.081479
O	      2.25810      2.12585      1.95831         0.010704     -0.009676     -0.167238
O	      4.28050      4.16874      2.18271         0.029063      0.027525      0.006874
O	      4.12221      2.13539      4.18695         0.039930     -0.045947      0.066318
O	      6.39522      4.46513      4.36443         0.012502      0.016565     -0.052557
O	      6.47818      2.28472      6.36524         0.128462     -0.053977     -0.014037
O	      8.45818      4.22654      6.28452        -0.031478     -0.044118      0.083122
O	      2.15713      4.12771      4.26556         0.037957     -0.038364      0.016728
O	      4.39342      6.36859      4.19122         0.065892     -0.020850     -0.046111
O	      4.25407      4.27347      6.45533         0.024401     -0.022075     -0.145235
O	      6.34853      6.32059      6.48359         0.041585      0.017113      0.069697
O	      6.22197      4.33719      8.44359         0.004754      0.066903     -0.029009
O	      8.37241      6.50744      8.55486         0.076289      0.100273     -0.011211
O	      2.06741      6.62247      6.28859        -0.024190      0.268470     -0.009974
O	      4.13030      8.62302      6.38238        -0.061906      0.010057     -0.031416
O	      4.28511      6.50377      8.57544         0.021587     -0.153266      0.010258
O	      6.37301      8.56741      8.48260        -0.060324      0.009704     -0.032375
O	      6.25355      6.48641     10.52587         0.093626      0.010385     -0.032022
O	      8.44336      8.72311     10.60001        -0.044534     -0.018709      0.227230
