# total energy = -244.25958605 eV
 
CRYSTAL
PRIMVEC
0.023564 6.360500 6.367151 
6.304880 0.002965 6.387562 
4.220682 4.271178 -0.015229 
PRIMCOORD
36 1
Li	      6.43068      6.43552     12.67501         0.088272      0.038434     -0.005975
Li	      2.08960      8.40576      6.35486        -0.013922     -0.025438     -0.037671
Li	      2.12546      6.36340      8.42350        -0.023022     -0.006157     -0.068968
Li	      4.26811      6.35734     10.66151         0.011146      0.008547      0.060532
Li	      6.25739      2.13903      4.33845        -0.060229      0.014660      0.022133
Li	      8.42768      4.30463      8.47816        -0.007904      0.022125      0.003464
Li	      4.25897      4.21260      4.27924         0.045819     -0.036116      0.007455
Li	      4.30082      2.12118      6.42623        -0.011390      0.006350      0.057721
Li	      2.09220      6.34493      4.29933         0.012259     -0.014446     -0.018184
Sc	      6.37023      6.34586      4.23072         0.011799     -0.026391      0.004480
Ti	      4.20588      2.29735      2.12590         0.089236      0.247894      0.151895
Mn	      8.35598      8.54816      8.53492         0.005449      0.055217      0.013321
Mn	      6.42026      6.37869      8.54242        -0.012626     -0.019953     -0.009372
V	      4.18900      6.31327      2.07784        -0.005371     -0.000286      0.018997
V	      6.44426      4.17697      6.31459        -0.198966      0.006854      0.028638
V	     10.48231      8.62009     10.68693         0.036259     -0.021202     -0.066942
V	      4.12285      6.37635      6.36469         0.046927     -0.043120     -0.082239
Ni	      2.12684      4.30047      6.35181         0.066619     -0.095639     -0.009915
O	      2.14141      2.09551      2.15769         0.039339      0.014875     -0.006963
O	      4.18786      4.18495      2.07050        -0.006588     -0.292690     -0.019562
O	      4.19750      2.14846      4.02684        -0.021985      0.007506     -0.236920
O	      6.31282      4.24988      4.39718         0.062544     -0.018965      0.015622
O	      6.32327      2.23184      6.47732         0.007849     -0.065473      0.019312
O	      8.18504      4.31920      6.38463         0.161288      0.037797      0.045204
O	      1.92265      4.17738      4.32026        -0.044182      0.002930     -0.110462
O	      4.26229      6.44405      4.21201         0.009992     -0.013276     -0.055417
O	      4.30002      4.28294      6.36994         0.075733      0.017972      0.081097
O	      6.24669      6.31766      6.32930        -0.008897     -0.048463     -0.038931
O	      6.34844      4.17138      8.53870        -0.037678      0.013222      0.010070
O	      8.55105      6.37404      8.49939         0.010031      0.018145      0.012048
O	      2.20855      6.31922      6.33115        -0.028854      0.107831     -0.024204
O	      4.21787      8.49424      6.33989        -0.072545     -0.000740      0.104121
O	      4.22129      6.50832      8.35835        -0.026492      0.028808     -0.007465
O	      6.19751      8.53533      8.41538        -0.123003      0.047387      0.080395
O	      6.33950      6.24947     10.65912        -0.019244      0.025717      0.070128
O	      8.66521      8.50301     10.63171        -0.057665      0.006082     -0.007442
