# total energy = -251.64112097 eV
 
CRYSTAL
PRIMVEC
0.035360 6.271685 6.360527 
6.472807 0.019996 6.376326 
4.323049 4.199675 0.005296 
PRIMCOORD
36 1
Li	      2.17490      2.08274      0.04114         0.040932     -0.045166     -0.006429
Li	      4.30545      2.08437      2.14674         0.002516     -0.004642     -0.008601
Li	      6.48719      8.41020     10.54288        -0.093011      0.025544     -0.041059
Li	      6.48153      2.10388      8.47091        -0.049154     -0.037447     -0.043547
Li	      2.15715      4.18022      2.14409         0.007049     -0.022677     -0.015918
Li	      2.16633      2.08400      4.21525         0.037783     -0.055607      0.002962
Li	      4.36758      6.29820      6.42194         0.032106      0.025527      0.061400
Li	      8.63373      8.40387      8.51493        -0.018115      0.062208      0.014916
Li	      6.52552      6.29973      8.50009         0.034627      0.000493     -0.013549
Sc	      6.50015      8.33034      6.44855        -0.007037      0.043101      0.092299
Ti	      0.03385      4.07312      4.12167        -0.028620     -0.078763     -0.254100
Mn	      8.59563      6.37384     10.45911         0.004930      0.022077      0.025637
Mn	      6.49704      4.18241      6.47820        -0.006829     -0.004973      0.005009
V	      4.28933      4.21123      0.05187         0.046091     -0.029536      0.035082
V	      2.19428      0.11467      2.15271        -0.030417     -0.107594     -0.052444
V	      4.36610      6.30457     10.55959        -0.042958      0.026202     -0.060653
V	      4.31951      4.16853      4.18677        -0.011714      0.093744     -0.018012
V	      8.66472      6.29459      6.44234        -0.021694      0.045672      0.045587
O	      2.17121      1.90043      2.08630        -0.024064      0.211633      0.022506
O	      4.43344      4.18602      2.20567        -0.034660      0.026931     -0.035848
O	      4.31163      2.12542      4.33334        -0.010602     -0.066012      0.012994
O	      6.47095      4.19987      4.16085         0.039462      0.022807      0.034569
O	      6.37650      2.03628      6.36570        -0.027139      0.021556      0.004233
O	      8.71870      4.20058      6.30725         0.036463     -0.039559     -0.027236
O	      2.11713      4.17183      4.25341        -0.050884     -0.057606     -0.043235
O	      4.31946      6.31881      4.26637         0.027934      0.102722     -0.007510
O	      4.30359      4.20788      6.22608         0.005160      0.022511      0.081986
O	      6.60739      6.29686      6.41823        -0.034173     -0.013063     -0.018284
O	      6.52691      4.18440      8.64960         0.068557     -0.032994      0.334440
O	      8.64546      6.31923      8.38384         0.015365      0.020348      0.002109
O	      2.05032      6.27053      6.44952        -0.012776      0.052736     -0.008446
O	      4.42180      8.44713      6.25409        -0.036383     -0.083418     -0.057049
O	      4.22640      6.31556      8.59307         0.043356     -0.045543      0.044287
O	      6.51681      8.58713      8.46492         0.079090     -0.074053     -0.006003
O	      6.46067      6.19654     10.66756        -0.065765     -0.029957     -0.088931
O	      8.85384      8.48786     10.63460         0.084569      0.002797     -0.013159
