# total energy = -241.56094233 eV
 
CRYSTAL
PRIMVEC
0.047020 6.257318 6.378460 
6.270840 0.025952 6.398880 
4.191893 4.196519 0.006028 
PRIMCOORD
36 1
Li	      0.13021      6.21189      6.39501         0.057397      0.044644      0.004906
Li	      2.14684      6.24596      8.43303        -0.035894      0.053538     -0.017535
Li	      8.36040      4.22714      8.55958        -0.017163     -0.020466      0.004395
Li	      6.28060      6.28995      4.26613        -0.069157     -0.048145      0.065586
Li	      4.11993      4.22781      4.29561         0.016326      0.040803     -0.053158
Li	      6.25664      4.22721      6.42032         0.039665      0.032415     -0.054297
Li	      2.17383      6.19664      4.28800         0.049223      0.016284      0.076273
Li	      2.13521      4.23764      6.45566        -0.066492     -0.006374      0.028484
Li	      6.32995      6.29927      8.47088        -0.041913     -0.030385     -0.063704
Sc	      6.36438      8.32126     10.53487         0.008158      0.061346     -0.079617
Ti	      4.10037      0.05576      4.18215        -0.246853     -0.044303     -0.280344
V	      4.18442      6.15818      2.14558         0.189151     -0.081583      0.208699
V	      8.26091      6.33219      6.43345         0.376553     -0.039632      0.227411
V	      0.19814      4.16293      4.21704         0.204841     -0.209550     -0.104678
V	      4.25976      6.21265      6.40846         0.168419     -0.278552     -0.158692
Cr	      2.11440      2.12847      0.05698        -0.025869     -0.087775      0.116674
Co	      4.15999      2.20522      2.12561        -0.059875      0.054266      0.024538
Cu	      4.14539      4.19036      8.39314        -0.070567     -0.010181     -0.092644
O	      2.04959      2.14727      2.04653        -0.019613      0.022162     -0.077420
O	      4.20368      4.32873      2.20382        -0.025851      0.071441     -0.024773
O	      4.20240      2.02520      4.31326         0.015657     -0.188203      0.045059
O	      6.43053      4.14432      4.23757         0.342237     -0.091538      0.003754
O	      6.28321      2.10612      6.51292         0.193157      0.032849     -0.039381
O	      8.38154      4.24968      6.24225        -0.002653     -0.016104     -0.094278
O	      1.95253      4.20956      4.29020        -0.014637     -0.012810      0.021321
O	      4.21652      6.36514      4.25663         0.004533      0.152464     -0.339659
O	      4.19209      4.13649      6.24921         0.056009      0.464008      0.221999
O	      6.28651      6.25353      6.43187        -0.285724      0.017756      0.047961
O	      6.29902      4.00372      8.69986        -0.079504      0.008954     -0.039828
O	      8.50514      6.23724      8.47575        -0.179678      0.047431     -0.194678
O	      2.27253      6.38612      6.39644        -0.281055      0.083712     -0.087657
O	      4.17188      8.33388      6.30933        -0.024203     -0.195453      0.110721
O	      4.23779      6.34243      8.56586        -0.049432     -0.033944      0.489027
O	      6.22016      8.39690      8.56119         0.045854     -0.006829      0.036941
O	      6.23715      6.21808     10.60709        -0.092957      0.095831     -0.002214
O	      8.48237      8.47457     10.81257        -0.078091      0.101922      0.070807
