# total energy = -241.33940081 eV
 
CRYSTAL
PRIMVEC
0.030057 6.240281 6.321116 
6.347861 0.019545 6.331459 
4.249636 4.184913 -0.004756 
PRIMCOORD
36 1
Li	      0.07058      6.23039      6.34801         0.008747     -0.048368      0.032147
Li	      2.17525      8.32885      6.32916         0.014685      0.035388      0.062301
Li	      6.34947     10.31951      8.45630         0.018027     -0.012803     -0.002870
Li	      4.37794      8.37788      8.39168        -0.004294      0.001561     -0.033367
Li	      2.16285      4.13618      2.10781        -0.003790     -0.047052     -0.004356
Li	      4.15406      4.16887      4.21278        -0.098615      0.005070     -0.025517
Li	      2.13198      6.24017      4.23171        -0.011760     -0.079195      0.035687
Li	      6.33648      8.39662      6.36915        -0.077266     -0.016638      0.000147
Li	      8.39975      8.35962      8.49052         0.001632      0.063123      0.008247
Sc	     10.56486      8.42103     10.55296         0.039757      0.052418      0.042680
Ti	      4.07645      6.25438      6.43065        -0.432833      0.201700      0.269922
V	      4.25873      6.09579      2.09559         0.077396     -0.133437      0.022782
V	      2.14519      2.11933      4.14676        -0.053286      0.077769     -0.078646
V	      4.27673      2.10315      6.30188        -0.063029      0.017861      0.033171
V	      6.42369      4.16805      6.33060         0.164626     -0.008566     -0.042849
Cr	      6.41920      6.34348      8.42380        -0.075028      0.103470      0.015531
Co	      4.28619      6.27155     10.53230        -0.076228     -0.165866     -0.035394
Ni	      6.45833      8.36821     10.48076        -0.063523      0.037138     -0.011309
O	      1.94110      2.06988      2.19521        -0.050121     -0.018709      0.070056
O	      4.21580      4.33957      2.09026        -0.001325      0.091603      0.055998
O	      4.24078      2.05129      4.26788         0.036091      0.135228      0.116147
O	      6.43362      4.22875      4.28484         0.070101      0.138759      0.109792
O	      6.34182      2.10850      6.42026         0.033151     -0.043605      0.071820
O	      8.42285      4.29676      6.35399        -0.023510      0.040420      0.146764
O	      2.08072      4.07639      4.22267        -0.017576     -0.056782     -0.014948
O	      4.26200      6.26922      4.16556        -0.036111      0.015483      0.020263
O	      4.38916      4.21033      6.28776        -0.037991      0.054669     -0.070304
O	      6.38681      6.24904      6.33376         0.002087     -0.012693     -0.024415
O	      6.37072      4.15951      8.39023        -0.017905      0.015594      0.025092
O	      8.50895      6.31158      8.32078         0.019840      0.019388     -0.018500
O	      2.27604      6.20011      6.36017         0.501008      0.035949     -0.044473
O	      4.24915      8.18506      6.28222        -0.046745     -0.258964     -0.068851
O	      4.38872      6.26002      8.30551        -0.021840     -0.029470     -0.449779
O	      6.38453      8.28213      8.45345         0.027839     -0.086832     -0.107349
O	      6.36625      6.30858     10.44336         0.039333     -0.088233     -0.101213
O	      8.48853      8.46972     10.54846         0.158456     -0.035378     -0.004410
