# total energy = -237.79720831 eV
 
CRYSTAL
PRIMVEC
0.025705 6.332291 6.315460 
6.243572 0.031217 6.309747 
4.182048 4.237144 0.001406 
PRIMCOORD
36 1
Li	      4.27388     10.51156      6.38115         0.032057     -0.038190     -0.002363
Li	      6.19663     10.33737      8.40186        -0.031094      0.054350      0.015708
Li	      4.41246      8.53386      8.35712        -0.065513     -0.023860      0.005101
Li	      6.31227      8.46758     10.30144        -0.001515     -0.007594      0.052583
Li	      0.02450      2.08756      2.09174         0.008553     -0.001592      0.041430
Li	     10.41556      8.52298     10.53197         0.026116     -0.001844      0.005338
Li	      6.20822      8.47609      6.55929        -0.036524     -0.020837     -0.078525
Li	      8.17039      8.50159      8.41821         0.007838      0.018943     -0.002122
Li	      6.27298      6.55889      8.39980        -0.011915      0.000158      0.025113
Sc	      4.25127      2.21684      6.37635         0.059637      0.015333     -0.000474
Ti	      2.15292      8.40285      6.39114         0.146582     -0.140465     -0.055933
V	      4.31130      6.31573     10.37138        -0.024740      0.070060     -0.007019
V	      8.31117      4.25172      8.36316        -0.050378      0.004251      0.054796
V	      6.22438      6.36979      4.19735        -0.016638      0.022671     -0.006628
V	      8.26547      6.40980     10.48763         0.056290      0.003890      0.007843
Cr	      4.19814      4.22347      4.15575         0.029286     -0.017686      0.020765
Cu	      6.22892      4.26084      6.42393        -0.046259     -0.087568      0.036602
Ni	      4.18942      6.32441      6.38324        -0.042761      0.007874      0.089605
O	      6.29410      8.47412      8.41742        -0.026963     -0.007199     -0.008931
O	      2.06884      2.19430      2.06742         0.004792     -0.076477      0.014166
O	      4.05768      4.22718      2.19757         0.094953     -0.009451     -0.074925
O	      4.12589      2.08341      4.25961         0.118851      0.035442      0.006083
O	      6.28462      4.38893      4.20211        -0.017353     -0.063424     -0.092639
O	      6.33840      2.16984      6.34265         0.054167     -0.116375      0.034442
O	      8.47427      4.22729      6.20254         0.144867      0.014583     -0.093993
O	      2.16236      4.21227      4.11521         0.005217     -0.024266      0.065135
O	      4.11073      6.23594      4.24704        -0.089156     -0.054501     -0.079360
O	      4.10882      4.24881      6.19989        -0.111976     -0.064952     -0.037815
O	      6.25565      6.36458      6.20458         0.096512      0.116071     -0.091199
O	      6.43567      4.24918      8.35311        -0.042669      0.035914      0.134487
O	      8.36485      6.28751      8.46984         0.017451      0.112980     -0.031132
O	      2.09834      6.46903      6.22700        -0.104035      0.089749     -0.001789
O	      4.04248      8.36610      6.34916        -0.168919      0.132320      0.005781
O	      4.19778      6.31582      8.61932        -0.012709     -0.049055      0.008873
O	      6.25912      6.32572     10.51957         0.011629      0.034271      0.030954
O	      8.37456      8.55135     10.64098        -0.013679      0.036476      0.010043
