# total energy = -238.50214684 eV
 
CRYSTAL
PRIMVEC
0.033081 6.278405 6.490905 
6.244139 0.052658 6.471525 
4.190292 4.200736 0.007142 
PRIMCOORD
36 1
Li	      8.38386      8.43767     12.89486        -0.024462      0.008828     -0.017677
Li	      4.28613      8.31138      8.53801        -0.039903      0.017425     -0.121774
Li	      8.32547     10.45910     10.72706        -0.022960     -0.073537     -0.037362
Li	      6.37091      8.42969     10.66117         0.010773      0.002808     -0.088516
Li	      8.36546      4.24278      8.60583         0.027125     -0.004268     -0.027097
Li	      6.26045      4.22963      6.51621        -0.016446     -0.017440      0.048500
Li	      6.29524      8.42744      6.62583        -0.021403      0.045858      0.109240
Li	      4.16921      6.31519      6.66421        -0.050343     -0.000394      0.080333
Li	      8.30386      8.50160      8.66545        -0.036025      0.021733      0.062696
Sc	      4.21763      8.36518      4.39504        -0.097159      0.040074      0.016658
Ti	      8.25566      6.30090      6.45960        -0.113481     -0.145016      0.133091
V	      4.21440     10.43679      6.50910         0.077229      0.003279      0.047473
V	      0.12567      2.14325      2.12552         0.023087     -0.097439      0.020446
V	      8.34650      6.39871     10.80921        -0.017568      0.112863      0.021450
V	      4.27786      4.17004      4.40540         0.035146      0.128535     -0.218531
Cr	      6.18994      6.37658      8.66477        -0.051938      0.025066      0.083114
Cu	      2.20876      6.17654      8.59678         0.083613     -0.047215     -0.030534
Cu	      2.25281      2.07581      4.31198         0.042506     -0.096424     -0.079204
O	      1.91363      2.03813      2.09571        -0.006494      0.169471      0.115057
O	      4.26940      4.28736      2.19654        -0.187923     -0.006987     -0.033274
O	      4.24106      2.20871      4.51301        -0.113264     -0.077523      0.074831
O	      6.07518      4.22850      4.37664         0.085031      0.168448      0.126371
O	      6.12460      2.09022      6.66521        -0.071444      0.026082     -0.038725
O	      8.40823      4.38461      6.47803        -0.057288      0.212067      0.001945
O	      2.23755      4.30931      4.24938         0.018399     -0.163861     -0.019876
O	      4.15369      6.25083      4.19579         0.107215      0.065060      0.060475
O	      4.15975      4.11821      6.33137        -0.030270     -0.121985      0.049497
O	      6.35697      6.30290      6.69634         0.199278      0.001051     -0.076261
O	      6.29412      4.18651      8.69926        -0.027311      0.042745      0.009801
O	      8.39811      6.35412      8.63498         0.005024     -0.002409     -0.084307
O	      1.99567      6.31634      6.31228         0.013485      0.013291     -0.169674
O	      4.18375      8.47593      6.44229         0.041039     -0.025490     -0.043378
O	      4.18777      6.31826      8.65000         0.212031      0.028075      0.049800
O	      6.27970      8.36601      8.65598        -0.051859     -0.223844      0.004426
O	      6.27267      6.30988     10.76198         0.000102     -0.020730     -0.041447
O	      8.39823      8.36458     10.80491         0.056460     -0.008198      0.012433
