# total energy = -245.38300736 eV
 
CRYSTAL
PRIMVEC
0.001013 6.442805 6.338368 
6.285127 0.038582 6.300552 
4.200311 4.280427 0.015636 
PRIMCOORD
36 1
Li	      4.22525     10.61320      6.40865         0.003238     -0.042348      0.009823
Li	      2.19614      8.54818      6.44305         0.014779     -0.029302      0.002111
Li	      2.08839      6.41213      8.34614        -0.008479     -0.013099     -0.025965
Li	      6.30765      8.60533     10.44383         0.023929     -0.001047     -0.053679
Li	      2.15976      4.16634      2.15633         0.002905     -0.044232      0.018449
Li	      2.08879      2.18413      4.17173         0.007299     -0.043179      0.009821
Li	      6.17183      8.58129      6.40145        -0.015836      0.044218     -0.002473
Li	      4.22056      6.59193      6.38337        -0.030183      0.012886      0.023660
Li	      6.25956      6.61129      8.41146        -0.003862      0.008114      0.005202
Sc	      4.24940      6.44480     10.47163        -0.004515     -0.067843      0.006223
Ti	      6.34807      4.38241      6.37228         0.107601      0.115646     -0.008315
V	      0.10749      2.09981      2.11501         0.129235      0.115839      0.096830
V	      4.19807      4.28542      4.19459        -0.075693      0.039641      0.075061
V	      8.37924      6.43403      6.36023        -0.039061      0.019165     -0.046210
V	      2.01847      6.41961      4.38418         0.039665     -0.022276      0.131253
Cr	      8.29344      8.63688      8.40067         0.024693      0.042180      0.070796
Fe	      4.19222      8.60718      8.29448         0.077155     -0.057609     -0.105017
Co	      4.24937      8.55566      4.31041        -0.042494     -0.027012      0.086501
O	      2.02784      2.13822      2.15189        -0.162098     -0.044456     -0.028624
O	      4.20985      4.29420      2.22683         0.017536      0.048050      0.033568
O	      4.19517      2.19246      4.29939         0.026554      0.038070      0.026587
O	      6.31523      4.28330      4.40717        -0.048087     -0.020938      0.154813
O	      6.18651      2.29095      6.41568         0.057360      0.004061      0.041481
O	      8.28903      4.34425      6.31051        -0.123828     -0.051763      0.000110
O	      2.10593      4.47964      4.20488         0.041839     -0.089494     -0.072985
O	      4.07843      6.32937      4.17399         0.047089      0.112956     -0.084394
O	      4.27768      4.25978      6.30569         0.034136      0.080955     -0.006199
O	      6.37398      6.30123      6.35903        -0.033591     -0.098734     -0.029241
O	      6.21477      4.26603      8.35722        -0.013826     -0.003263     -0.204951
O	      8.44754      6.58771      8.42028        -0.021836     -0.039112     -0.036638
O	      2.07831      6.51322      6.11963        -0.021236      0.025840     -0.119817
O	      4.19105      8.57503      6.29775        -0.063460     -0.021490      0.088292
O	      4.16518      6.37545      8.45787         0.046375      0.039513      0.020159
O	      6.34902      8.62492      8.39188         0.070211     -0.015440      0.012830
O	      6.34493      6.47478     10.51296        -0.034056     -0.020692     -0.012704
O	      8.39975      8.55537     10.42113        -0.029462      0.006194     -0.076359
