# total energy = -242.83076289 eV
 
CRYSTAL
PRIMVEC
0.025240 6.384657 6.252786 
6.410984 0.051563 6.227020 
4.309003 4.274456 -0.000865 
PRIMCOORD
36 1
Li	      8.38927      2.11526      6.17482         0.046294      0.050871     -0.008640
Li	      6.47710      2.16998      4.26066        -0.013629      0.093655     -0.065069
Li	      4.28707      4.26974      4.20816        -0.027495      0.007147      0.036668
Li	      4.41311      2.26850      6.25108        -0.042975      0.062459      0.009088
Li	      6.37645      4.20757      6.26434        -0.020046      0.097119      0.039160
Li	      8.52094      6.48616     10.41026        -0.003579     -0.032699     -0.015682
Li	      2.20674      4.26176      6.23327         0.010270     -0.016946     -0.031811
Li	      8.52830      8.48662      8.34169        -0.041944      0.005293     -0.010653
Li	      6.53486      6.49321      8.24059         0.035655      0.012721     -0.028114
Sc	      4.39070      8.58728      8.24665         0.048981     -0.028170     -0.032434
Ti	      8.66038      4.25951      4.38059         0.070286     -0.056326      0.208722
V	      2.17873      6.36167      8.29115         0.018483     -0.029806      0.035689
V	      8.53133      4.39255      8.27407        -0.044201     -0.044070     -0.018714
V	     10.69776      8.59579     10.41253        -0.002016     -0.013410     -0.053890
V	      4.31676      6.23421      6.23572         0.105126     -0.114449      0.019008
Cr	      6.36687      2.18471      8.26312        -0.013128      0.048486      0.088685
Fe	      6.50437      6.40561      4.29225        -0.040293      0.059525     -0.107129
Cu	      6.55120      6.59512     12.31347        -0.011635      0.076964     -0.180675
O	      2.09717      2.14589      2.12010        -0.016203     -0.019161     -0.009096
O	      4.29717      4.31157      2.16406         0.026751     -0.008518      0.003016
O	      4.20099      2.03496      4.13900         0.086188     -0.067392     -0.031597
O	      6.61393      4.37954      4.06513         0.057671     -0.024240      0.017418
O	      6.39002      2.24777      6.32814         0.039350     -0.053532      0.012707
O	      8.48215      4.27981      6.24057        -0.046510     -0.033923     -0.245714
O	      2.04794      4.17311      4.06861         0.030407     -0.034359      0.005319
O	      4.39701      6.41923      4.19079        -0.052313      0.016418     -0.031463
O	      4.28813      4.45063      6.21183        -0.007900      0.025511      0.002345
O	      6.31538      6.42860      6.20046        -0.053198     -0.037548      0.103291
O	      6.46394      4.19357      8.40117         0.038842     -0.083776      0.024295
O	      8.67766      6.32547      8.33093         0.059864      0.075259      0.015837
O	      2.33079      6.42354      6.30308        -0.066587      0.027941      0.004143
O	      4.32959      8.34064      6.18810         0.043280     -0.075313      0.044505
O	      4.26104      6.46944      8.23905        -0.012396      0.015878      0.044178
O	      6.41354      8.67809      8.33002        -0.061983     -0.003322      0.021044
O	      6.28244      6.40857     10.28953        -0.078718     -0.048377      0.049057
O	      8.67172      8.72397     10.39748        -0.060700      0.150091      0.086508
