# total energy = -241.57254063 eV
 
CRYSTAL
PRIMVEC
-0.001936 6.412426 6.269017 
6.407878 0.017703 6.249363 
4.274372 4.264284 0.009313 
PRIMCOORD
36 1
Li	      2.42285      6.28833      8.24669         0.026524     -0.012376     -0.005633
Li	      4.38332      8.30790      8.24760         0.026247      0.007559      0.025529
Li	      4.31860      6.36077     10.19954        -0.011491      0.028208      0.028151
Li	      6.41702      2.23642      8.33867        -0.037990     -0.001221      0.062940
Li	      6.33699      4.39426     10.36146        -0.010251     -0.011759      0.028038
Li	      6.28895      8.56506      6.46234        -0.026423      0.002956     -0.031861
Li	      4.30988      6.45167      6.44796         0.043169     -0.003098     -0.045051
Li	      4.31752      4.54462      8.29766         0.024376     -0.046937      0.010999
Li	      6.17485      6.40443      8.31821         0.020937      0.004832     -0.009852
Sc	      6.41302      8.57022     10.24748         0.031231      0.003021      0.116142
Ti	      8.49207      6.51358      6.40984        -0.153750      0.350917     -0.107300
V	      8.43298      4.26822      8.34153        -0.078884     -0.133948      0.077259
V	      2.11602      2.12132      4.12950         0.026893      0.056356      0.076309
V	      4.26066      4.29897      4.09141         0.082818     -0.036205      0.096915
V	      2.16946      6.40646      4.20389        -0.000315      0.037218      0.055768
Cr	      4.28969      4.26306      0.07425        -0.001821     -0.053836     -0.010691
Fe	      2.28473      8.49023      6.33111        -0.080159      0.043744     -0.046933
Ni	      6.41376      4.26590      6.30068        -0.041742      0.011270     -0.055208
O	      2.07507      2.22725      2.09307        -0.036559      0.090635      0.027356
O	      4.08646      4.29357      2.11989        -0.105550      0.020897     -0.100502
O	      4.23290      2.24622      4.28375         0.144626     -0.063713      0.020953
O	      6.35237      4.33691      4.21778        -0.015879      0.149141     -0.155837
O	      6.29522      2.09150      6.25328        -0.020812     -0.063544      0.070897
O	      8.59437      4.28490      6.26905         0.074781      0.031251     -0.107854
O	      2.14989      4.27689      4.15315         0.063006     -0.149493      0.177652
O	      4.25763      6.27411      4.25371        -0.152323      0.023924     -0.107797
O	      4.32902      4.11086      6.19605        -0.134202     -0.300894      0.077657
O	      6.57423      6.34121      6.17070         0.228432      0.176626     -0.058754
O	      6.48858      4.27523      8.29402         0.114660      0.012654      0.164985
O	      8.55194      6.34792      8.30499        -0.029092     -0.119055     -0.190281
O	      2.02987      6.51758      6.26729        -0.053800     -0.081969      0.108452
O	      4.18371      8.67999      6.27434         0.096311      0.008693      0.037571
O	      4.29675      6.41735      8.33454        -0.003441      0.011841     -0.017764
O	      6.41333      8.54996      8.36359        -0.002075     -0.003794     -0.143304
O	      6.55525      6.46647     10.56418         0.031796     -0.015463     -0.048008
O	      8.52126      8.43851     10.55934        -0.039245      0.025563     -0.020942
