# total energy = -246.17660294 eV
 
CRYSTAL
PRIMVEC
0.015581 6.370673 6.406390 
6.373754 0.023112 6.398926 
4.265868 4.259004 -0.001366 
PRIMCOORD
36 1
Li	      0.18767      6.28097      6.33957         0.017979     -0.024247     -0.090836
Li	      2.12351      6.36584      8.40954         0.003611     -0.003899     -0.020687
Li	      6.51298      8.43025     10.60960         0.006595     -0.016861      0.009805
Li	      4.25171      6.34920      2.21018        -0.031891     -0.009241     -0.059317
Li	      2.17973      4.25054      2.19267         0.007299      0.020004     -0.003694
Li	     10.56825      8.54556     10.72832        -0.040039      0.021665      0.054555
Li	      8.48965      6.49282     10.67047        -0.006222      0.027536     -0.007572
Li	      4.14883      6.42729      6.38540        -0.002258      0.056142     -0.025030
Li	      8.50258      8.52417      8.70040         0.007588     -0.014524      0.085966
Sc	      8.55862      6.36392      6.48337         0.180504     -0.081644      0.096378
Ti	      6.38781      4.20348      6.50059         0.047639     -0.301479      0.327934
V	      4.25710      8.51589      8.50109         0.012832      0.018244     -0.024475
V	      8.57115     10.56887     10.66568         0.011560     -0.083328     -0.033502
V	      2.05297      2.17225      4.20678        -0.012227     -0.009182     -0.180222
V	      6.41058      6.42447      8.55740        -0.018677     -0.042559      0.156569
Cr	      2.10428      4.34253      6.39562        -0.055760      0.154328      0.018049
Fe	      2.15454      8.38843      6.41030         0.011922      0.025837      0.015666
Fe	      4.23938      4.37402      4.17064         0.099651     -0.109402     -0.020147
O	      2.22674      2.11906      2.10929        -0.000143      0.037385      0.180261
O	      4.28916      4.14978      2.26967         0.027624      0.027310     -0.118306
O	      4.15445      2.10372      4.25591        -0.007983      0.033767      0.041435
O	      6.40211      4.36632      4.39387        -0.046267      0.105822      0.070946
O	      6.33823      2.29508      6.43342        -0.159063      0.344260      0.057994
O	      8.36095      4.29787      6.37843        -0.182278      0.109931      0.031148
O	      2.23203      4.16541      4.36045        -0.072310     -0.049806      0.064189
O	      4.35876      6.31195      4.18849        -0.007158      0.094068      0.054000
O	      4.33941      4.22608      6.27106        -0.058010     -0.020106      0.007133
O	      6.42451      6.37423      6.37201        -0.005535      0.036269      0.024713
O	      6.34574      4.37770      8.36318        -0.045723     -0.046932     -0.299156
O	      8.41217      6.40362      8.49532         0.031460      0.000943     -0.034929
O	      2.16454      6.28850      6.39292         0.005436     -0.323031     -0.065659
O	      4.37779      8.50841      6.45860         0.233685      0.003471     -0.056470
O	      4.38051      6.46814      8.60630        -0.028994     -0.015380     -0.008542
O	      6.35186      8.44562      8.43116        -0.010885      0.020490     -0.133423
O	      6.24850      6.42815     10.61367         0.068239     -0.032811      0.017381
O	      8.49082      8.61848     10.75934         0.017800      0.046960     -0.132155
