# total energy = -248.02978610 eV
 
CRYSTAL
PRIMVEC
-0.023426 6.298600 6.472376 
6.313975 -0.001826 6.450582 
4.205184 4.180513 0.003192 
PRIMCOORD
36 1
Li	      4.20727     10.36778      6.50088         0.013879      0.017581      0.014804
Li	      2.22096      6.07572      8.53334        -0.019274     -0.019182      0.009268
Li	      4.32747      8.29674      8.46948        -0.022516      0.028705     -0.025364
Li	      6.31085      8.39016     10.59819         0.025979      0.002353     -0.060015
Li	      6.25633      4.21856      6.44342         0.009466      0.004597     -0.012547
Li	     10.42477      8.43448     10.89426         0.001164     -0.009019      0.024474
Li	      6.19922      8.42054      6.63418        -0.023526     -0.000423      0.000775
Li	      4.13682      6.35015      6.64548        -0.012598     -0.019103     -0.067986
Li	      4.05737      4.33678      8.55645         0.002045     -0.068106     -0.033101
Sc	      8.31690      6.35201     10.89161        -0.009246      0.040628     -0.092138
Ti	      6.37326      2.16903      8.51994        -0.013822      0.048584      0.089620
V	      2.18292      8.38359      6.47887        -0.125567      0.075582     -0.030877
V	      6.26929      6.26747      4.38075         0.151423      0.067290      0.344787
V	      4.28597      4.17864      4.36011        -0.248308     -0.014472     -0.084228
V	      6.20213      6.35989      8.57023        -0.243359     -0.165643      0.107916
Cr	      2.12108      4.19982      2.14582         0.000426      0.039594      0.085059
Cr	      4.19563      2.09808      6.43861        -0.020580     -0.064999     -0.169087
Co	      4.22682      6.24310     10.69308        -0.157775      0.124849      0.159209
O	      2.01384      2.19387      2.19822        -0.046147     -0.081098      0.122043
O	      4.12212      4.35866      2.26526         0.014546      0.025056     -0.031589
O	      4.11511      2.06778      4.45727         0.383753     -0.029443     -0.140820
O	      6.25866      4.28152      4.25807         0.278741      0.003794      0.002752
O	      6.29179      2.09568      6.63085        -0.098015      0.026858      0.213880
O	      8.41826      4.16886      6.57588        -0.012787      0.113959      0.079037
O	      2.19624      4.15255      4.18623         0.001228      0.044392     -0.042463
O	      4.21231      6.28090      4.18828        -0.171246      0.028412     -0.114778
O	      4.21353      4.06772      6.29531         0.032846     -0.028887      0.109259
O	      6.39873      6.26526      6.44395        -0.136094      0.046243     -0.407313
O	      6.39591      4.12720      8.61067         0.069781     -0.061861     -0.095483
O	      8.45511      6.23007      8.55509        -0.069885     -0.004513     -0.073730
O	      2.04562      6.38691      6.44061        -0.014785     -0.092097      0.093947
O	      4.06720      8.39559      6.48500         0.122032     -0.011999      0.037351
O	      4.25148      6.26503      8.61223         0.350200     -0.081365      0.052075
O	      6.30576      8.26690      8.60714         0.008360      0.044494     -0.159002
O	      6.31191      6.26783     10.65758        -0.081318      0.048339      0.113749
O	      8.36166      8.38184     10.86394         0.060979     -0.079101     -0.019487
