# total energy = -245.26711427 eV
 
CRYSTAL
PRIMVEC
0.013891 6.442107 6.281302 
6.351389 0.034663 6.260257 
4.248613 4.295247 0.008753 
PRIMCOORD
36 1
Li	      6.47024     10.63047      8.36117         0.070690     -0.093895     -0.036785
Li	      6.40084      8.59565     10.30881         0.023634     -0.004456     -0.020064
Li	      6.35747      2.22281      8.37572        -0.033540      0.053407      0.009209
Li	      6.34944      6.44820      4.20102         0.004753     -0.009028     -0.003328
Li	     10.56452      8.62743     10.44086        -0.012643      0.010153     -0.014368
Li	      6.36977      8.59323      6.39819        -0.015491      0.027750      0.052082
Li	      4.27274      6.45584      6.33811        -0.009257      0.013322      0.073674
Li	      8.39406      8.67976      8.39308        -0.073339      0.041957     -0.031480
Li	      6.29461      6.57636      8.35923        -0.020970      0.066391     -0.059490
Sc	      8.38564      4.30158      8.41263        -0.015410     -0.028486      0.093397
Ti	      4.33258      4.39354      4.20117         0.120830      0.265162     -0.045401
V	      2.14312      8.55052      6.27595         0.051614     -0.013644      0.083299
V	      8.43961      6.50331      6.27299        -0.000731      0.000333      0.006847
V	      6.31635      4.38249      6.30075         0.093949     -0.063886      0.047511
V	      8.45376      6.51887     10.39216         0.117686      0.056209      0.278511
Cr	      0.06577      6.43289      6.29082         0.059905     -0.056869      0.002100
Cr	      4.33263      8.52948      8.41780        -0.072726      0.442091     -0.076955
Cu	      4.28695      6.37722     10.31790         0.046069      0.069748      0.343647
O	      2.19266      2.18858      2.01287        -0.011820      0.101465      0.083017
O	      4.23050      4.20761      2.13826        -0.021289      0.071098      0.056404
O	      4.23199      2.33733      4.21294        -0.008262      0.010830      0.044969
O	      6.25454      4.33550      4.26748        -0.270256      0.002352     -0.039726
O	      6.36979      2.16094      6.27019        -0.104388     -0.038356     -0.031885
O	      8.52943      4.33185      6.19635        -0.032092      0.008077     -0.146458
O	      2.24546      4.40089      4.16718         0.049952     -0.001427      0.007182
O	      4.16406      6.29638      4.18264         0.066765     -0.215301     -0.029962
O	      4.26645      4.27885      6.17774         0.006586     -0.052750     -0.115141
O	      6.48069      6.32917      6.24182         0.034361      0.043751     -0.011765
O	      6.37737      4.27687      8.26727         0.003474     -0.037321     -0.039539
O	      8.50079      6.40835      8.28274        -0.010676     -0.006574     -0.114537
O	      2.03103      6.52880      6.22417        -0.021940     -0.152908      0.051997
O	      4.16543      8.70833      6.38212         0.064128     -0.039228     -0.016690
O	      4.25064      6.56383      8.43761        -0.011964     -0.327149     -0.143415
O	      6.26929      8.59513      8.37113         0.065482     -0.000515      0.004879
O	      6.48402      6.42516     10.58382        -0.081014     -0.011474     -0.101693
O	      8.54185      8.50694     10.54825        -0.052069     -0.130829     -0.160042
