# total energy = -245.33895096 eV
 
CRYSTAL
PRIMVEC
0.015675 6.299728 6.381382 
6.309911 0.040649 6.356562 
4.236568 4.213214 -0.002940 
PRIMCOORD
36 1
Li	      4.24947      4.20311      0.23276         0.021387     -0.009559      0.027022
Li	      6.19879      4.30558      2.16802        -0.003853      0.007890      0.028806
Li	      4.09966      2.29224      2.14663        -0.031253      0.048732      0.050367
Li	      2.28884      4.12846      2.15573         0.005509      0.016264      0.042716
Li	      2.10569      2.03592      4.14987         0.018848     -0.021383     -0.024196
Li	      4.25178      4.27860      4.06575         0.002262      0.023306      0.044230
Li	      6.33687      4.27464      6.33406        -0.043977      0.010599     -0.029581
Li	      4.26100      6.29721      6.37777        -0.010672     -0.027514      0.011251
Li	      6.30093      6.27002      8.44964         0.018542     -0.057797      0.004077
Sc	      6.25529      2.20099      4.19440        -0.115663      0.059768     -0.010288
Ti	      6.29438      8.35501      6.43729         0.021659     -0.218530      0.032895
V	      2.13658      2.10955      0.12586         0.033515      0.022972      0.099805
V	      8.45851      6.26149      6.40777        -0.016100      0.025886     -0.048499
V	      2.16575      6.26937      4.23783         0.009946     -0.043404     -0.049952
V	      4.25927      4.30629      8.43396         0.016749     -0.052170     -0.004782
Cr	      4.20925      6.35997     10.56877         0.006611      0.058941     -0.011174
Cr	      0.06318      4.17711      4.23024         0.032359     -0.004901      0.003656
Ni	      4.28393      6.22632      2.13404        -0.039669      0.089130     -0.006810
O	      2.09729      2.11618      2.00087         0.117210      0.048196     -0.083239
O	      4.22348      4.24416      2.15342        -0.011575     -0.144536     -0.016374
O	      4.24212      2.03301      4.30805         0.031765     -0.046002     -0.052277
O	      6.45019      4.19998      4.23977         0.024829     -0.084563     -0.010688
O	      6.28085      2.14336      6.32849        -0.025370      0.025564     -0.141811
O	      8.43264      4.23615      6.25979        -0.012428     -0.063729     -0.094431
O	      2.03175      4.23852      4.38597        -0.018566     -0.029213      0.096118
O	      4.14052      6.40104      4.22923        -0.003065      0.062502      0.128803
O	      4.09164      4.12260      6.39186        -0.103693     -0.036370      0.020403
O	      6.41711      6.45670      6.39224         0.039674      0.234071      0.021682
O	      6.22541      4.18879      8.58912         0.032260      0.071809      0.049204
O	      8.44164      6.43285      8.52677        -0.100077      0.015113      0.077357
O	      2.14322      6.32376      6.24175        -0.019759     -0.025449     -0.004078
O	      4.32037      8.40030      6.30564         0.124261     -0.008120     -0.045623
O	      4.24980      6.22703      8.58903        -0.013365      0.054665      0.000882
O	      6.41084      8.45025      8.39747        -0.012788     -0.000730     -0.129845
O	      6.35558      6.30152     10.55962        -0.010525     -0.023379     -0.008215
O	      8.50240      8.48179     10.64667         0.035012      0.021943      0.032588
