# total energy = -251.61673821 eV
 
CRYSTAL
PRIMVEC
0.006373 6.284112 6.568088 
6.217816 0.033512 6.539857 
4.153105 4.178966 0.014796 
PRIMCOORD
36 1
Li	      6.18914      6.32681     13.02553        -0.043711      0.002780     -0.023614
Li	      6.26774     10.43163      8.79983        -0.036022      0.050335      0.062177
Li	      6.17623      2.10033      4.42899        -0.019829      0.005613      0.031592
Li	      6.22003      6.30286      4.63451        -0.007271     -0.016001      0.010925
Li	      8.17408      6.32109      6.55750         0.093913     -0.027267      0.026163
Li	      6.20744      4.38322      6.52530         0.017086     -0.013737     -0.036433
Li	      4.15882      8.32527      4.38813         0.058587     -0.011819     -0.048203
Li	      4.26159      6.28287      6.52021         0.030526     -0.006744      0.008447
Li	      6.17712      6.31697      8.58600         0.054745     -0.003326      0.021905
Sc	      8.15972      6.27788     10.92388        -0.003467     -0.054506     -0.111907
Ti	      8.28564      8.37857     13.08431        -0.303507      0.170804      0.116060
V	      4.20531      8.35426      8.76292        -0.018939      0.233562      0.099243
V	      8.28041      4.21963      4.38482        -0.028607      0.040713      0.096055
V	      0.04085      2.08603      2.18469        -0.063292     -0.178600     -0.015542
V	      4.28615      4.16341      4.43529        -0.038786      0.048581     -0.023826
Cr	      8.23121      4.28324      8.66081         0.050363     -0.007845      0.013495
Cr	      6.22600      8.33413      6.59507         0.000652     -0.041706     -0.096887
Cr	      4.14188      4.26179      8.66531         0.088130     -0.043778      0.013587
O	      2.12442      2.14328      1.98236         0.167078     -0.087564     -0.104081
O	      4.09961      4.16984      2.30247         0.080352      0.007353     -0.025468
O	      4.18090      2.14950      4.24504         0.007609     -0.054449     -0.065363
O	      6.24615      4.20577      4.41327        -0.007079     -0.023205     -0.049333
O	      6.37792      2.05845      6.69947         0.264688     -0.023144     -0.074639
O	      8.31817      4.06868      6.38890        -0.057924     -0.122817     -0.007953
O	      2.17951      4.18995      4.54282        -0.059616      0.042468      0.076856
O	      4.13756      6.18113      4.23686        -0.021907     -0.006148      0.032490
O	      4.09052      4.22623      6.64623        -0.074405      0.016270      0.039269
O	      6.22151      6.39332      6.59800        -0.020836      0.054148     -0.000141
O	      6.16637      4.09375      8.73767        -0.077148      0.064229      0.016795
O	      8.32648      6.36822      8.78202        -0.019946      0.100494      0.050729
O	      2.11169      6.36798      6.47026        -0.032095      0.047647     -0.015425
O	      4.13684      8.37000      6.71371        -0.012089     -0.037132     -0.045843
O	      4.13911      6.29518      8.89831        -0.041116     -0.170421     -0.027700
O	      6.26657      8.42255      8.61399        -0.034554      0.069233      0.033849
O	      6.15011      6.28211     10.93354         0.061627     -0.003027      0.005174
O	      8.28237      8.38878     10.97147         0.046791     -0.020994      0.017548
