# total energy = -240.54484618 eV
 
CRYSTAL
PRIMVEC
0.024179 6.395133 6.325005 
6.249949 0.008949 6.340393 
4.182413 4.289488 -0.009927 
PRIMCOORD
36 1
Li	      6.23589      6.46235     12.47187        -0.024845      0.033683      0.130291
Li	      8.33590      2.23681      6.27761         0.090839      0.074768     -0.002458
Li	      4.18303      2.11390      2.15609        -0.005609      0.021764     -0.019483
Li	      4.42315      6.44288     10.54652        -0.160443      0.061754      0.022740
Li	      6.23666      8.34530     10.64426        -0.015153      0.160138      0.024450
Li	      6.21105      2.15599      8.41358        -0.007798      0.005088     -0.018136
Li	      6.24713      4.47925     10.59397         0.015631     -0.011897     -0.006893
Li	      4.15807      6.42308      6.32709        -0.021001     -0.041562      0.003422
Li	      6.24567      6.43280      8.62116         0.065637     -0.005871     -0.157267
Sc	      2.07446      0.08705      2.06627        -0.077518     -0.047784      0.099477
Ti	      6.08581      8.51638      6.32545        -0.373039      0.005569      0.116226
V	      8.35036      4.31940      8.41340         0.114579      0.142067      0.005677
V	      6.21650      6.41157      4.21630         0.035340     -0.148170      0.021639
V	      4.15205      4.26227      4.24725         0.021336     -0.141955      0.088027
V	      6.32473      4.19808      6.31040        -0.168185     -0.072623     -0.064375
V	      8.41139      8.61107      8.54099         0.066918     -0.147884     -0.173167
Co	      4.26689      2.08455      6.34182        -0.186322      0.291998     -0.114928
Cu	      8.30151      6.48885     10.59692         0.104684      0.001982      0.095939
O	      6.37217      6.43417     10.55278         0.128990      0.066241     -0.018737
O	      2.08170      2.18543      2.19978        -0.015077      0.006244     -0.026193
O	      4.11635      4.27063      2.24078         0.173821     -0.059076     -0.015027
O	      4.07395      2.23127      4.23982         0.173803     -0.198711      0.270909
O	      6.22070      4.33851      4.24481         0.030661     -0.066971     -0.051798
O	      6.30649      2.27078      6.30434        -0.193304      0.028768     -0.003773
O	      8.36776      4.27317      6.42352         0.012616     -0.063394     -0.006112
O	      2.06511      4.16486      4.25495        -0.073997      0.020782      0.079498
O	      4.17848      6.24977      4.25320        -0.044135      0.183459      0.042119
O	      4.18035      4.22921      6.36516        -0.121770      0.054808     -0.004528
O	      6.30024      6.44680      6.23672         0.166278      0.026515      0.076728
O	      6.25198      4.32755      8.31402        -0.120525     -0.117901      0.032871
O	      8.37013      6.43844      8.44764         0.093523     -0.029469     -0.482059
O	      2.07521      6.20122      6.32992        -0.028347     -0.057518      0.018259
O	      4.29831      8.46955      6.34865         0.408888     -0.027464     -0.030670
O	      4.14788      6.25493      8.40452         0.016647      0.106125      0.040406
O	      6.39211      8.59850      8.26773        -0.066747     -0.059301     -0.064332
O	      8.43477      8.62050     10.29529        -0.016375      0.005799      0.091259
