# total energy = -241.42299030 eV
 
CRYSTAL
PRIMVEC
0.005051 6.420340 6.234142 
6.283098 0.005756 6.234139 
4.197838 4.289560 -0.005544 
PRIMCOORD
36 1
Li	      6.37889      6.46890     12.40353        -0.004692      0.042994      0.032557
Li	      8.32368      8.50790     12.45126        -0.009082     -0.013487     -0.014267
Li	      2.03802      0.05621      2.05052         0.001504      0.027030      0.006452
Li	      4.21240      2.16849      2.08062         0.031090      0.037923      0.010513
Li	      6.29120      2.13645      4.19672        -0.012127      0.012890     -0.015719
Li	      2.10317      2.12693      4.13479         0.015518     -0.010215     -0.008199
Li	      6.27010      4.22412      6.18063        -0.019931      0.011596      0.008348
Li	     10.46671      8.63974     10.45414        -0.005847      0.008935     -0.028451
Li	      2.04109      6.39611      4.24363        -0.003011     -0.028216     -0.040131
Sc	      2.15823      4.20580      2.14519         0.049291     -0.013636     -0.000318
Ti	      8.26994      4.26528      4.23015        -0.217940     -0.022786     -0.013729
V	      0.06085      2.12431      2.11391         0.006460     -0.021936      0.074514
V	      4.20321      2.13863      6.15677        -0.035654      0.120371      0.011154
V	      4.11243      6.55492      6.13558         0.063922      0.009607     -0.048894
V	      8.35777      8.60999      8.34772         0.038984     -0.003564      0.076399
V	      6.27050      6.45491      8.37073        -0.005776     -0.040708     -0.047423
Co	      4.30123      4.26654      4.13871        -0.200028      0.114247     -0.217460
Ni	      2.09884      4.29176      6.17239        -0.056057      0.011990      0.035909
O	      2.01982      2.19670      2.04923        -0.060706     -0.025968     -0.049434
O	      4.20739      4.35090      2.05007         0.018322     -0.064397      0.345913
O	      4.19006      2.04106      4.21361         0.024120     -0.009175     -0.038139
O	      6.38990      4.28313      4.14748        -0.230473      0.019565     -0.032862
O	      6.16485      2.16553      6.35128         0.056102      0.020922     -0.030707
O	      8.36997      4.33842      6.14405         0.015948     -0.031377     -0.013051
O	      2.19281      4.28619      4.14957         0.466412     -0.006380     -0.037085
O	      4.20533      6.43934      4.17650         0.010977     -0.106473      0.037046
O	      4.20760      4.33367      6.29406         0.078912     -0.051727     -0.341654
O	      6.27827      6.44243      6.30855         0.017420     -0.064351     -0.028574
O	      6.23671      4.33399      8.32800         0.045451     -0.032547      0.008292
O	      8.40613      6.46513      8.25663         0.011359     -0.063434      0.064589
O	      2.27339      6.35908      6.20361        -0.042814      0.090150      0.012098
O	      4.25569      8.35840      6.22290        -0.093935     -0.038172      0.005536
O	      4.19996      6.39672      8.29487         0.032465      0.047017     -0.028187
O	      6.38172      8.43868      8.25860        -0.018469      0.036578      0.092517
O	      6.15289      6.42446     10.32136        -0.019733      0.007987      0.118478
O	      8.35521      8.73630     10.32608         0.052019      0.028745      0.093969
