# total energy = -244.08172475 eV
 
CRYSTAL
PRIMVEC
0.001383 6.313930 6.337274 
6.347803 0.004480 6.334184 
4.233307 4.208653 0.001575 
PRIMCOORD
36 1
Li	      6.33265      6.34228     12.48575         0.009092      0.028586     -0.036365
Li	      4.41890      6.26576     10.54407         0.083546     -0.017116     -0.042495
Li	      6.41551      8.17489     10.55760        -0.025896     -0.162948      0.004823
Li	      6.29794      2.25435      8.41608        -0.006068      0.019683     -0.027289
Li	      8.28530      4.25870      8.42286        -0.059904      0.013159      0.022039
Li	      6.35758      4.21773      6.50492        -0.003406     -0.004248      0.063864
Li	      8.29717      6.39552     10.51353        -0.089649     -0.061630     -0.037714
Li	      4.21967      6.31728      6.39498        -0.004811     -0.037309      0.048482
Li	      6.33875      6.19584      8.60580        -0.011059     -0.049784      0.056909
Sc	      8.39937      2.17588      6.20319        -0.222772      0.060858      0.098556
Ti	      6.25919      6.28965      4.25920        -0.003259     -0.074265      0.098034
V	      2.15704      6.32957      8.44875        -0.035442      0.008478     -0.034101
V	      4.28306      8.39023      8.47722        -0.030409      0.032944     -0.014110
V	      4.23976      4.24367      4.23777         0.057903     -0.017151     -0.022309
V	      8.57163      6.19689      6.44644         0.073649      0.025783     -0.217054
V	      2.06969      4.24410      6.30104         0.175051      0.081936      0.106069
Co	      4.31594      4.22586      8.50252         0.035351      0.038388      0.058404
Co	      6.32379      4.28447     10.52278         0.049066      0.137105     -0.249835
O	      2.20783      2.11943      2.18572         0.017416     -0.031391      0.083051
O	      4.35480      4.09852      2.25336         0.069353      0.024884      0.006306
O	      4.16723      2.16460      4.27512        -0.109049     -0.026444      0.014898
O	      6.28974      4.35545      4.16906        -0.054023      0.242633      0.004721
O	      6.27416      2.10076      6.31144         0.008934      0.022138      0.036057
O	      8.47025      4.27956      6.33229        -0.016526     -0.047354      0.000435
O	      2.21913      4.13515      4.26691        -0.065741     -0.067548     -0.010801
O	      4.36235      6.33450      4.22145         0.273307     -0.376144      0.103203
O	      4.15678      4.12989      6.26889         0.019756      0.015340      0.075712
O	      6.45623      6.34349      6.18353        -0.046394      0.118165     -0.204712
O	      6.29231      4.23080      8.52609        -0.030240     -0.338513     -0.569543
O	      8.46074      6.31551      8.20839         0.010337      0.025660      0.118397
O	      2.11117      6.32147      6.45367         0.042436     -0.077589     -0.058506
O	      4.25889      8.41959      6.38200         0.020929     -0.124338      0.276936
O	      4.14982      6.40167      8.46821        -0.020642     -0.047803     -0.024463
O	      6.34048      8.45050      8.33398        -0.013205      0.005275      0.026882
O	      6.38720      6.20407     10.52578        -0.062358      0.651775      0.256951
O	      8.40572      8.39918     10.57738        -0.035271      0.008785     -0.011430
