# total energy = -246.23534127 eV
 
CRYSTAL
PRIMVEC
0.000426 6.321805 6.267233 
6.396526 0.006858 6.260401 
4.269089 4.214692 -0.000002 
PRIMCOORD
36 1
Li	      8.47885      2.16520      6.32115        -0.065973     -0.012788     -0.000200
Li	      6.23731      4.30213      2.17197        -0.091107      0.029840      0.017446
Li	      4.24660      2.17051      2.15116         0.029258     -0.013695     -0.008192
Li	      6.44578      2.12635      8.26260        -0.036496      0.026705     -0.006453
Li	      4.33998      4.16271      4.13479        -0.023534      0.057929      0.030930
Li	      4.35916      2.12074      6.23679         0.029551     -0.025815      0.004271
Li	      6.34452      4.08683      6.27247        -0.021389     -0.058389     -0.013040
Li	      6.39232      4.21278     10.38756         0.051155     -0.025044     -0.009847
Li	      4.37121      4.21754      8.31220         0.031614      0.017057     -0.008644
Sc	      8.57401      6.43350     10.36961         0.055072     -0.060798     -0.020036
Ti	      6.47674      8.43668      6.38682         0.039754      0.026734      0.164789
V	      6.36248      0.06965      6.28468         0.152759     -0.187053     -0.053391
V	      8.50370     10.50898     10.42778         0.109926     -0.064136     -0.104633
V	      2.14628      4.15054      2.07393        -0.195253      0.104916      0.092028
V	      2.12216      2.09426      4.13537        -0.105383      0.024865      0.094404
V	      4.22144      6.40040      6.33655        -0.017856      0.023035     -0.103472
Cr	      6.41886      6.25228      8.33569         0.001048      0.085087      0.054192
Cu	      6.32813      2.20447      4.18895         0.043304      0.024040     -0.179025
O	      2.08050      2.18569      2.16665         0.031405     -0.112868     -0.053888
O	      4.12146      4.23364      2.03378         0.226096      0.026788     -0.025806
O	      4.24415      1.95434      4.19001        -0.022752      0.079350      0.001040
O	      6.44100      4.36611      4.19685        -0.014185      0.099419      0.010693
O	      6.41594      1.94464      6.17645        -0.005046      0.077865      0.115428
O	      8.68214      4.14826      6.20374        -0.085457     -0.026931     -0.001070
O	      2.17167      4.18720      4.25802        -0.006360      0.020042     -0.046149
O	      4.24519      6.37159      4.32277         0.040281      0.042895      0.011015
O	      4.10576      4.34752      6.28806         0.046663     -0.035810      0.018358
O	      6.32605      6.45541      6.27298         0.099409     -0.036774      0.015940
O	      6.50857      4.28604      8.27596        -0.078175     -0.072125     -0.065793
O	      8.44152      6.24217      8.33393         0.091910      0.023625     -0.025119
O	      2.09137      6.22882      6.27890        -0.093944      0.025742      0.039408
O	      4.41693      8.43732      6.30098        -0.061491      0.118377      0.032634
O	      4.40884      6.30315      8.34632        -0.045061     -0.012814      0.055682
O	      6.41056      8.33837      8.26685         0.012929     -0.018573     -0.090379
O	      6.42106      6.20725     10.36849        -0.086546     -0.168741      0.044425
O	      8.47506      8.47541     10.41297        -0.036128     -0.001956      0.012455
