# total energy = -248.12663419 eV
 
CRYSTAL
PRIMVEC
0.052294 6.447696 6.213013 
6.348520 0.050129 6.215029 
4.256734 4.324019 0.009471 
PRIMCOORD
36 1
Li	      8.56604      8.63148     12.23629        -0.016503      0.023115      0.016099
Li	      6.40938      4.33077      2.22288        -0.014387     -0.030740     -0.003448
Li	      8.44304     10.57913     10.28671         0.009672      0.013474     -0.032693
Li	      6.61941      8.75862     10.24912        -0.065962      0.004266     -0.082317
Li	      6.40184      6.39689      4.11052         0.021895     -0.038526      0.003815
Li	      4.34957      4.30926      4.10674         0.035598      0.005126     -0.027975
Li	     10.38239      8.61908     10.34261         0.015627      0.004063     -0.009981
Li	      8.54370      6.77990     10.37230        -0.027206      0.015350     -0.042307
Li	      8.51729      8.70533      8.49542        -0.024420     -0.033402     -0.059501
Sc	      6.36800      4.32223      6.08019         0.012466     -0.092867     -0.073187
Ti	      6.47170      6.47748     12.28694         0.145211     -0.018456     -0.353539
V	      4.33057      6.46269      2.22231        -0.092465      0.046934      0.204569
V	      2.14544      4.30613      2.24923        -0.045962      0.161765     -0.025714
V	      4.26743      2.16054      6.07035         0.043503      0.038697      0.074115
V	      2.16766      4.32248      6.09645         0.008821      0.028831      0.116235
V	      6.39733      6.47938      8.38409         0.035718      0.090098      0.155317
Cr	      4.23390      2.18027      2.16910         0.143706     -0.032813      0.002751
Fe	      4.19492      6.47955      6.12579         0.019926      0.011342      0.021965
O	      2.11220      2.31270      2.08168         0.128338     -0.273602     -0.015886
O	      4.21876      4.30007      2.03239         0.068653     -0.096070     -0.074566
O	      4.24839      2.20680      4.14225        -0.002618     -0.023461      0.017581
O	      6.37451      4.35246      4.17031         0.013761      0.008295      0.111086
O	      6.29645      2.11513      6.34022         0.222702     -0.049108      0.066969
O	      8.56134      4.41424      6.32028         0.041519      0.160313     -0.009709
O	      2.13768      4.31421      4.16837        -0.008646      0.004726      0.109193
O	      4.27019      6.47495      4.13759        -0.036789      0.010290     -0.339302
O	      4.20647      4.25786      6.23963         0.062349     -0.203987     -0.004607
O	      6.48958      6.48448      6.27073        -0.245303     -0.027025     -0.011821
O	      6.41333      4.38589      8.29598        -0.031752     -0.049609      0.002372
O	      8.52734      6.40600      8.23586        -0.011343      0.066248     -0.043318
O	      2.02806      6.41831      6.24989        -0.194751     -0.040459     -0.035640
O	      4.35483      8.75375      6.31866        -0.077410      0.205687     -0.024331
O	      4.39017      6.61477      8.19062        -0.143937      0.074783      0.037035
O	      6.29927      8.49756      8.20338        -0.013133      0.046915     -0.086460
O	      6.38314      6.49840     10.45314         0.031814     -0.043621      0.344091
O	      8.50043      8.66823     10.35943        -0.008692      0.033428      0.073109
