# total energy = -239.04466884 eV
 
CRYSTAL
PRIMVEC
-0.006656 6.492327 6.388980 
6.070036 0.029785 6.352721 
4.067445 4.324688 -0.001007 
PRIMCOORD
36 1
Li	      6.05739      4.33770      2.13777         0.022930      0.002012      0.020686
Li	      6.06460      8.67376     10.56913        -0.021243      0.031790      0.004850
Li	      4.11435      6.48911      2.18949         0.058586     -0.022665      0.081804
Li	      6.01043      6.50381      4.23582        -0.058111     -0.004489     -0.087135
Li	      4.09521      4.40916      4.15983         0.053436      0.156235     -0.093400
Li	      6.02537      4.41676      6.38329        -0.019209      0.040039     -0.044256
Li	      4.09908      8.61912      4.26345         0.042892     -0.092778      0.041791
Li	      6.03621      8.60703      6.37527        -0.006778     -0.017800     -0.028353
Li	      6.05128      6.52602      8.44561        -0.042987      0.026764     -0.059625
Sc	      8.02934      6.53225      6.30979         0.038833      0.031369     -0.121802
Ti	      4.02085      4.34789      8.45146        -0.185863      0.037754     -0.231878
V	      4.09794      4.31062      0.04741         0.023141     -0.016578      0.104826
V	      2.02336      2.15026      0.04999         0.074778      0.088769      0.005273
V	      8.03789      4.35727      4.17643        -0.179029     -0.048025      0.035031
V	      1.94482      4.31357      2.21282         0.083811     -0.058442     -0.084447
V	      2.06052      6.46867      4.24598        -0.005173      0.014445      0.073594
Cu	      4.13430      6.48298      6.26468        -0.120334     -0.001295      0.137463
Ni	      4.12136      8.68478      8.53480         0.027037     -0.036443      0.010570
O	      2.04551      2.24953      2.02825        -0.058871      0.033236      0.099933
O	      3.98712      4.28038      2.06222         0.030241      0.114417      0.023539
O	      4.07616      2.00812      4.21222        -0.057373     -0.064725      0.153654
O	      6.27191      4.30435      4.25555         0.026084     -0.043528     -0.003104
O	      6.11138      2.03439      6.34597        -0.150072      0.017033      0.020024
O	      8.07816      4.33306      6.34555        -0.018560      0.121580      0.021295
O	      2.02702      4.49323      4.13070         0.029720     -0.008350      0.110939
O	      4.00459      6.49209      4.29244         0.015811      0.016862     -0.160647
O	      4.06698      4.24136      6.54702        -0.067796     -0.088315      0.155528
O	      6.04457      6.51727      6.32073        -0.008786     -0.024103      0.032333
O	      6.01860      4.34346      8.49639        -0.092524      0.033484     -0.003853
O	      8.08944      6.58660      8.48762        -0.019128      0.020686     -0.021694
O	      2.10198      6.58578      6.33682         0.213319     -0.194520     -0.091480
O	      4.01474      8.80350      6.44458         0.120048      0.060850     -0.070385
O	      4.08750      6.41200      8.62130        -0.040274     -0.032767      0.041645
O	      6.19890      8.69138      8.52410         0.331867     -0.075111      0.020660
O	      6.01427      6.49447     10.75132        -0.022580     -0.012407     -0.041817
O	      8.12431      8.69542     10.62599        -0.017843     -0.004984     -0.051560
