# total energy = -238.71891284 eV
 
CRYSTAL
PRIMVEC
-0.017300 6.228844 6.395598 
6.247932 -0.007526 6.385547 
4.171703 4.152529 -0.011438 
PRIMCOORD
36 1
Li	      8.33142      8.33761     12.72800         0.021449     -0.016218     -0.024309
Li	      2.02603      6.24233      8.44070        -0.020574     -0.008553      0.031699
Li	      8.32383      4.15061      8.40675         0.006659     -0.009718      0.006310
Li	      8.38417      6.12414      6.41009         0.035431      0.028330     -0.008671
Li	      6.31735      4.13027      6.42545        -0.041235     -0.008290     -0.026468
Li	      6.16766      4.19448     10.62791         0.058791     -0.007277     -0.055428
Li	      2.05535      6.25959      4.31571         0.017359     -0.016565      0.000919
Li	      6.21255      8.35423      6.42636        -0.014698     -0.013906      0.032537
Li	      4.16764      4.15738      8.53539         0.005236     -0.004740     -0.055293
Sc	      6.37033      8.30808     10.72122        -0.069544     -0.002566     -0.060302
Ti	      4.03071      4.20424      4.35602        -0.138916      0.012327      0.203430
V	      4.14246      2.11195      2.10350        -0.067294      0.007052     -0.005390
V	      6.16673      2.13939      8.45055         0.115289     -0.039396      0.004170
V	      6.23264      6.19984      4.30332        -0.032137     -0.011589      0.104135
V	      4.00378      6.24002      6.42498         0.104968      0.029733      0.034271
V	      6.35400      6.13553      8.44861         0.013876      0.048980     -0.026753
Cu	      0.03457      6.20375      6.37893         0.071950     -0.047464     -0.049968
Cu	      8.39104     10.26848     10.68651        -0.022171      0.080537     -0.069890
O	      2.04608      2.08104      2.32131        -0.019318     -0.004102     -0.102453
O	      4.13338      4.24666      2.31637        -0.015573      0.008789      0.141509
O	      4.14940      2.14549      4.19533         0.022706      0.096359      0.085739
O	      6.09081      4.18941      4.29520        -0.180320     -0.039709      0.043683
O	      6.28606      2.00716      6.40247        -0.011919      0.115396      0.083501
O	      8.51587      4.13122      6.20241        -0.053394     -0.008266      0.083568
O	      2.14043      4.03765      4.33163         0.163193      0.102534      0.028776
O	      4.13715      6.18384      4.26601        -0.079496     -0.074186     -0.030024
O	      4.13068      4.24184      6.25740        -0.007753     -0.068820     -0.154746
O	      6.13307      6.21699      6.44183         0.027171     -0.009787      0.019371
O	      6.28637      4.15065      8.43493         0.026925     -0.015052     -0.027401
O	      8.33287      6.22797      8.38865        -0.075266     -0.033610     -0.005660
O	      2.06848      6.21682      6.41870        -0.112182      0.034708      0.000310
O	      4.13737      8.27418      6.56505        -0.028281      0.025963     -0.038341
O	      4.24890      6.25448      8.51970        -0.029670     -0.082306     -0.022705
O	      6.12984      8.19827      8.57066         0.081742      0.054413     -0.023578
O	      6.36014      6.21903     10.30668         0.130931      0.003125     -0.096081
O	      8.33037      8.31852     10.61285         0.116066     -0.126123     -0.020465
