# total energy = -245.45529863 eV
 
CRYSTAL
PRIMVEC
-0.007459 6.352813 6.283004 
6.309103 0.000631 6.275017 
4.220524 4.244282 -0.013966 
PRIMCOORD
36 1
Li	      4.24365      4.21251      0.09535        -0.025858     -0.050527     -0.053076
Li	      6.11730      4.06940      2.14011        -0.049242     -0.040289      0.053836
Li	      4.31602      8.59064      8.31930        -0.027617     -0.027626      0.015733
Li	      4.19358      6.28733      2.03796        -0.006956      0.006788     -0.005772
Li	      4.25591      4.20374      4.10001         0.024236      0.039441      0.033907
Li	      4.29273      2.22074      6.24141        -0.010569      0.072525     -0.006162
Li	     10.51516      8.48486     10.46065        -0.011526     -0.012090      0.020839
Li	      6.26536      8.50223      6.37867        -0.021661     -0.006228     -0.010172
Li	      8.37244      8.47765      8.32378         0.005931      0.009704      0.004152
Sc	      2.09199      2.07669      0.07956        -0.019668      0.025193      0.078700
Ti	      2.14785      6.25372      4.18550         0.034161     -0.136826     -0.006027
V	      4.22568      6.34562     10.41448        -0.079194     -0.059976     -0.201489
V	      2.22233      4.27555      2.05880        -0.113571      0.005664     -0.150348
V	      2.10899      2.16368      4.17747         0.060621     -0.127564     -0.023714
V	      6.25235      4.22478      6.27473         0.073988     -0.031508     -0.027342
V	      4.16694      6.34486      6.32876         0.095346     -0.078664      0.027036
Fe	      6.33788      6.47074      8.33408        -0.015909     -0.155163      0.016878
Co	      6.26314      2.12490      4.15170         0.010706      0.080896     -0.000355
O	      2.02621      2.25728      2.18528        -0.001531     -0.066904      0.094641
O	      4.12843      4.26078      2.06893         0.181121     -0.006049      0.006435
O	      4.12642      1.97806      4.18744        -0.187263      0.177126     -0.029940
O	      6.37358      4.32845      4.21626        -0.016998     -0.108615     -0.050679
O	      6.29964      2.17430      6.19611        -0.013555     -0.085455      0.276970
O	      8.38224      4.17655      6.18302         0.154337      0.047019     -0.091283
O	      2.12671      4.32229      4.14536        -0.018197      0.206339      0.058385
O	      4.14202      6.37593      4.26647         0.033271      0.065705     -0.084599
O	      4.30841      4.34578      6.27542        -0.222840     -0.087935     -0.000451
O	      6.27071      6.36351      6.23916         0.121573      0.036845     -0.131387
O	      6.47740      4.40331      8.23426        -0.090564     -0.007078      0.159437
O	      8.41442      6.33741      8.48474         0.095517      0.151777      0.005910
O	      2.07919      6.33621      6.15331        -0.074127     -0.018067     -0.031769
O	      4.13019      8.32092      6.31421         0.067762      0.133424     -0.007286
O	      4.31901      6.30256      8.39465        -0.215416     -0.016674      0.110608
O	      6.32556      8.40071      8.41774        -0.036004      0.136314     -0.212414
O	      6.40428      6.32462     10.37981         0.065604     -0.089887      0.182610
O	      8.39533      8.43314     10.49448         0.234090      0.018365     -0.021811
