# total energy = -238.73657803 eV
 
CRYSTAL
PRIMVEC
0.010476 6.304915 6.410050 
6.364059 -0.005699 6.426155 
4.244035 4.215440 -0.005181 
PRIMCOORD
36 1
Li	      2.10332      6.29132      8.42354        -0.033801      0.011843     -0.052671
Li	      4.27684      8.45601      8.45227         0.078499     -0.001618     -0.043393
Li	      2.15461      4.17151      2.36233         0.000088     -0.004604     -0.010485
Li	      2.06916      2.31246      4.22871        -0.024259     -0.092442     -0.014347
Li	      0.27465      4.15757      4.39857         0.009691     -0.020532      0.078242
Li	      2.14749      6.08461      4.40073         0.008444      0.064511      0.051815
Li	      2.05501      4.31371      6.23704         0.031461     -0.023142      0.039814
Li	      4.21147      6.29196      6.46045        -0.032981      0.006217      0.079718
Li	      4.26387      4.23759      8.49597        -0.034085     -0.032268     -0.028930
Sc	      2.25921      8.32070      6.44882        -0.009645     -0.006036      0.003655
Ti	      6.41065      8.40713     10.51159         0.126666     -0.046436     -0.308416
V	      4.23037      6.33407     10.59851         0.018908     -0.013477      0.062673
V	      4.27408      6.29777      2.30197        -0.146173     -0.017593      0.027095
V	      8.46329      6.36169      6.45836        -0.127675     -0.156716     -0.026428
V	      6.31210      4.23870      6.43100         0.294652     -0.001681      0.078028
V	      6.39325      6.23582      8.56948         0.072403     -0.031013     -0.030047
Ni	      4.33277     10.46098      6.47964        -0.085647      0.076690     -0.128123
Ni	      4.11758      4.21150      4.25649         0.180669     -0.020625     -0.058007
O	      1.91825      2.10808      2.09119         0.130279      0.015179     -0.007042
O	      4.23649      4.35772      2.12524         0.001393      0.057907      0.087863
O	      4.36740      2.05546      4.36080         0.035409      0.020317     -0.029746
O	      6.34576      4.07659      4.38256        -0.000902     -0.060528     -0.128643
O	      6.33770      2.13265      6.46662        -0.020751      0.073306     -0.034819
O	      8.46707      4.27679      6.24683        -0.009289     -0.007952      0.059159
O	      2.16756      4.18329      4.27817        -0.164533      0.013771      0.034650
O	      4.18672      6.33740      4.07728        -0.031571      0.054223     -0.001091
O	      4.28946      4.10373      6.33999        -0.081143      0.109757      0.146447
O	      6.38881      6.18858      6.51863        -0.007465      0.153247     -0.042477
O	      6.36563      4.15829      8.45753        -0.049869      0.059511     -0.000808
O	      8.49348      6.30559      8.43099        -0.028991     -0.021155     -0.015509
O	      2.11397      6.34133      6.41425         0.090198      0.027348     -0.005049
O	      4.22253      8.46475      6.44086         0.043333     -0.174551     -0.011819
O	      4.40058      6.29255      8.66605        -0.109858     -0.025075     -0.117013
O	      6.38920      8.34876      8.69100         0.004648     -0.004838      0.326845
O	      6.34702      6.42624     10.66369         0.023564      0.076429      0.058307
O	      8.32012      8.52957     10.75076        -0.151666     -0.057975     -0.039449
