# total energy = -233.86913864 eV
 
CRYSTAL
PRIMVEC
0.018614 6.171307 6.260971 
6.487696 -0.015968 6.295718 
4.322766 4.135035 -0.008156 
PRIMCOORD
36 1
Li	      2.34620      6.14653      8.46848         0.072458      0.006183      0.021931
Li	      8.47386      4.16999      4.14777         0.032429      0.054685     -0.020356
Li	     10.75791      6.21604      8.41955        -0.046486     -0.081044      0.167950
Li	      6.49637      6.11088      4.18762        -0.134802      0.074514     -0.029403
Li	      8.61874      6.18217      6.24463        -0.028484      0.032644      0.015753
Li	      6.41751      4.16256      6.18425        -0.125614      0.067688     -0.033386
Li	      2.26360      6.16570      4.09878         0.163381     -0.092587     -0.057737
Li	      4.42106      6.14704      6.29811         0.080424     -0.088177     -0.123257
Li	      4.32900      4.14298      8.40101        -0.039788      0.038377     -0.049008
Sc	      6.44483      6.15092      8.43656         0.044534     -0.183971     -0.046785
Ti	      6.43669      0.01616      6.27498        -0.123045      0.251992      0.109029
Ti	      8.61219      8.19361     12.49824        -0.106637     -0.031641      0.278452
Ti	      2.38392      4.03425      6.21485         0.971369     -0.227086     -0.025916
Co	      4.30354      2.00221      2.14879        -0.170424      0.071024      0.043689
Co	      4.43229      4.22485      4.16061        -0.127365     -0.509914      0.269211
Co	      6.46344      2.14969      4.15908        -0.149971      0.010921      0.230195
Co	      8.62562      4.12167      8.40975         0.108467      0.118577     -0.041703
Cu	      4.32506      8.09523      4.13208         0.103903     -0.102065      0.025125
O	      2.18732      2.23325      1.94826         0.133940     -0.283800     -0.304435
O	      4.15966      4.09302      1.98460        -0.114740     -0.008975     -0.529168
O	      4.43512      2.23551      4.15855         0.230465     -0.038503     -0.073832
O	      6.44236      4.15078      4.20002        -0.215429     -0.158207     -0.266976
O	      6.62824      1.96100      6.34280         0.175797     -0.162924     -0.163112
O	      8.79520      4.02322      6.26334         0.040552     -0.154613     -0.166640
O	      2.26554      4.11571      4.29814        -0.065723      0.064983     -0.010296
O	      4.34519      6.06998      4.17211        -0.032498      0.420777      0.092516
O	      4.23715      4.12163      6.27000        -0.663576     -0.056485      0.252859
O	      6.50164      6.30117      6.31057         0.064061      0.283722      0.095798
O	      6.63141      4.06970      8.48240         0.066561      0.041144     -0.040128
O	      8.57301      5.98368      8.38199         0.008934      0.068300     -0.001920
O	      2.00295      6.20264      6.29859        -0.164721      0.120408      0.110075
O	      4.27133      8.28910      6.16476        -0.070851      0.027154      0.098032
O	      4.39144      6.17893      8.37197         0.073434      0.077124      0.069169
O	      6.50971      8.25380      8.18638        -0.086042      0.049351      0.103603
O	      6.46680      6.18104     10.58290         0.037888      0.292828      0.081518
O	      8.55793      8.21030     10.60172         0.057598      0.007593     -0.080846
