# total energy = -233.59873467 eV
 
CRYSTAL
PRIMVEC
0.033118 6.255939 6.388757 
6.236291 0.034193 6.387265 
4.176591 4.188837 0.003825 
PRIMCOORD
36 1
Li	      0.04175      6.25044      6.37611        -0.035998      0.017177     -0.022857
Li	      6.27338     10.41775      8.53667         0.010815      0.043582      0.181373
Li	      4.13463      0.04962      4.23090        -0.182118      0.019507     -0.024367
Li	      6.19276      2.16069      4.27044         0.000630      0.063953      0.017734
Li	      4.18902      6.27804      2.15243         0.013186      0.015150      0.055742
Li	      4.22213      4.18998      4.31171         0.149115     -0.020342      0.014173
Li	      6.17951      4.21680      6.33248         0.018912     -0.011856     -0.200104
Li	      2.15607      4.20842      6.41749         0.053222     -0.014234     -0.021298
Li	      6.26388      6.30586      8.48324         0.021698     -0.011717      0.072045
Sc	      8.16226      2.08049      6.36599        -0.118209      0.142728     -0.092886
Ti	      4.34477      8.30779      8.59033         0.162515     -0.212168      0.198464
Ti	      8.39982      4.31008      8.48791         0.070989      0.035175     -0.035585
Ti	      6.27997      4.30523     10.64070         0.018829      0.282944     -0.074291
Co	      6.26656      6.08210      4.29061         0.113473      1.648525      0.115029
Co	      4.14570      4.23696      8.52020        -0.054793     -0.006672     -0.047002
Co	      4.19266      2.15814      6.35682        -0.078266      0.045396     -0.196152
Co	      2.13009      6.22463      4.31988        -0.021779      0.065747     -0.093658
Ni	      4.21387      6.23901      6.39207         0.050673     -0.055252      0.033272
O	      2.14191      2.20992      2.07554        -0.019486     -0.168144      0.199850
O	      4.05632      4.07659      2.12893        -0.141417     -0.036719     -0.067419
O	      4.13304      2.07936      4.10450        -0.526523     -0.266308     -0.114689
O	      6.24907      4.30613      4.20528         0.005365     -0.238099      0.083767
O	      6.13172      2.12187      6.36426        -0.089778     -0.040580      0.092491
O	      8.28106      4.28538      6.53887         0.066458      0.103993      0.244008
O	      2.02528      4.07006      4.13587         0.000792     -0.341180      0.118458
O	      4.21869      6.35343      4.35504         0.382097     -0.300439     -0.047812
O	      4.17528      4.11076      6.46706         0.000968     -0.218630      0.169534
O	      6.40674      6.30916      6.26792         0.067582     -0.238532     -0.645351
O	      6.33696      4.20878      8.68993        -0.031325      0.025635      0.135196
O	      8.36951      6.23022      8.60604        -0.060685     -0.060670      0.392422
O	      2.14024      6.28527      6.34476        -0.042120     -0.158490     -0.420124
O	      4.15448      8.33524      6.35376         0.004015      0.078684      0.034828
O	      4.21045      6.37383      8.43129         0.075632      0.174533     -0.021115
O	      6.18224      8.38274      8.54226        -0.222861     -0.022811     -0.031067
O	      6.31163      6.15597     10.69458         0.131207     -0.207246      0.025291
O	      8.44968      8.42148     10.64963         0.207183     -0.132642     -0.027899
