# total energy = -230.96137586 eV
 
CRYSTAL
PRIMVEC
0.011828 6.139767 6.470662 
6.337839 -0.016775 6.498764 
4.219901 4.107072 -0.005545 
PRIMCOORD
36 1
Li	      2.29166      6.08901      8.67870         0.096982     -0.035509      0.017866
Li	      4.28004      6.15348     10.66003         0.053316     -0.031514      0.045569
Li	      6.32830      8.16298     10.76968        -0.004172      0.007274      0.019510
Li	     10.47529      6.10486      8.63421        -0.016338      0.036301      0.015114
Li	      8.46630      6.15359      6.52543        -0.012088     -0.028009      0.035990
Li	      6.27205      4.08926      6.57845        -0.017016      0.009274      0.011801
Li	      8.39174      6.12504     10.71920        -0.078068      0.013502     -0.072450
Li	      4.30191      6.12745      6.65444         0.092597      0.004701      0.040755
Li	      4.21504      4.18430      8.59466         0.032950     -0.061610      0.006263
Sc	      6.32024      4.08399     10.74556        -0.040254      0.086389      0.007619
Ti	      8.34270      2.04487      6.42589        -0.143994      0.187237     -0.267180
Ti	      6.39370      6.02234      4.33140        -0.035736     -0.327236      0.190770
Ti	      2.31501      4.10743      6.56305         0.313046     -0.133346      0.070349
Fe	     10.51244      4.11932      6.50648        -0.101991     -0.042832     -0.063688
Co	      8.41230      4.12188      8.62045        -0.099382     -0.006478      0.026224
Cu	      4.26329      4.14458      4.24628         0.109729      0.023392      0.017024
Cu	      6.33033      6.12263      8.66141         0.074134      0.062049      0.042985
Ni	      4.24034      8.15110      8.62725         0.056462      0.058246     -0.034878
O	      2.14350      2.16826      2.17629        -0.117170      0.072224     -0.019970
O	      4.02280      4.09595      2.02637        -0.127764      0.087581     -0.012876
O	      4.11318      2.18924      4.23917        -0.045746     -0.106555      0.063295
O	      6.36983      4.18158      4.27021         0.113873      0.290739     -0.064710
O	      6.47264      2.00691      6.52963         0.069263      0.072377      0.026308
O	      8.47308      3.95800      6.51727        -0.029441     -0.153352     -0.012930
O	      2.08050      4.08180      4.45318        -0.178460     -0.013594      0.027308
O	      4.38223      6.10401      4.23531         0.038542      0.103932     -0.034259
O	      4.11731      4.10741      6.53779        -0.228982      0.016884      0.111475
O	      6.35529      6.25366      6.24990         0.048665      0.055074     -0.313183
O	      6.42637      4.10734      8.67856         0.089096     -0.141436      0.056988
O	      8.33093      5.97733      8.64212         0.106241     -0.056456     -0.034353
O	      2.05195      6.12222      6.57661         0.041265     -0.008149      0.029937
O	      4.17302      8.19030      6.46690        -0.044125      0.000268     -0.072967
O	      4.37661      6.15014      8.66997        -0.130915     -0.114327     -0.008103
O	      6.32075      8.15039      8.45523         0.136025      0.093456     -0.147490
O	      6.32228      6.11713     11.03277        -0.024588     -0.059463      0.000186
O	      8.48264      8.10728     11.01974         0.004048      0.038965      0.295699
