# total energy = -92.21837565 eV
 
CRYSTAL
PRIMVEC
2.016857 4.123864 1.990651 
3.964033 -2.032089 -1.979465 
0.005406 4.144613 -4.027319 
PRIMCOORD
16 1
Li	      1.94940      2.10869     -0.08379         0.001083     -0.253657      0.175131
Li	      3.88168      4.08261     -0.04726         0.405209     -0.120810      0.034464
Li	      3.86576      2.06261     -1.91252         0.223779     -0.086414      0.040883
Li	      2.00610      3.94443     -1.90237        -0.203364      0.424309      0.078699
Mn	      1.97981      4.03483      1.89279        -1.010374      0.865897      2.374001
Mn	      1.92936      2.02988     -3.88139        -0.406292     -1.475472     -1.943062
Ni	      0.01852      1.99006     -1.92021        -1.319365      0.107460      0.136308
Ni	      3.86589      4.06849     -3.92323         0.561702      0.588545     -0.946609
O	      3.90167      4.22681     -2.00168         0.501278      0.228533      0.812257
O	      3.77880      2.07301     -3.98441         1.059654     -0.643774     -0.622307
O	      3.98544      1.97308      0.08647         0.449914      0.021522      0.342795
O	      3.90889     -0.17381     -1.91561         0.309694     -1.088383     -0.160405
O	      1.91301      4.04904      0.11287         0.080901      0.022086     -0.675615
O	      1.95793      2.03277     -2.08461         0.406387     -0.312317      1.185945
O	      2.04373      6.17449     -1.96893        -0.420674      0.745413     -0.389248
O	      1.86361      3.89956     -3.91687        -0.639533      0.977061     -0.443237
