# total energy = -229.38196553 eV
 
CRYSTAL
PRIMVEC
0.046861 6.403508 6.332900 
6.362276 0.020756 6.358137 
4.235222 4.279697 0.019925 
PRIMCOORD
36 1
Li	     10.40433      4.30097      6.43880        -0.181161      0.053772     -0.049363
Li	      8.51766      2.39270      6.40840        -0.023664      0.156192      0.051447
Li	      8.41257      4.31715      4.39590         0.064557      0.038551      0.267275
Li	      6.39610      2.20653      8.37271         0.036715      0.070313     -0.047316
Li	      8.43293      4.36104      8.34701        -0.036849     -0.059608     -0.143735
Li	      2.17246      2.12083      4.18294        -0.001230     -0.009319     -0.075893
Li	      8.46191      6.23893      6.44747         0.067361     -0.133141     -0.044043
Li	      6.58865      4.32946      6.39162         0.168726     -0.018952      0.166541
Li	      6.48792      6.31444      8.47855        -0.029462     -0.030282      0.039430
Sc	      4.37291      4.20765      8.39900         0.222503      0.102637      0.179169
Ti	      6.33709      2.07560      4.52612         0.184720     -0.336967      0.951017
Ti	      4.29375      4.27954      4.22386        -0.038079     -0.000466     -0.265266
Ti	      6.27727      8.39346      6.32016        -0.368052     -0.080296     -0.048692
Fe	      2.10870      0.11672      2.01416        -0.064046     -0.046243      0.025977
Co	      6.39218      4.37129     10.50364        -0.026312      0.105692     -0.094262
Cu	      4.24367      8.50945      8.45591        -0.038757      0.021025      0.012361
Cu	      8.50784      6.44876     10.59204        -0.155343      0.165296     -0.073270
Cu	      4.26055      6.42367      6.34087        -0.030535      0.046859      0.062225
O	      2.24506      2.02948      2.11757         0.003575      0.034333      0.106262
O	      4.32219      4.24541      2.27727        -0.041970      0.037288      0.281319
O	      4.39124      2.26656      4.31898         0.080818      0.135152     -0.097671
O	      6.25597      4.16797      4.20530        -0.227063     -0.038921     -0.022755
O	      6.40353      2.14292      6.32065        -0.070268     -0.006429     -0.932016
O	      8.47831      4.32154      6.36757         0.008922      0.142420     -0.033205
O	      2.26266      4.22352      4.31520         0.174171     -0.045855      0.137002
O	      4.25882      6.27239      4.32100         0.011820     -0.275944     -0.086014
O	      4.10164      4.12693      6.28467        -0.045792      0.072185     -0.005538
O	      6.25114      6.52799      6.38264         0.094762      0.206855     -0.046338
O	      6.37260      4.30178      8.53457        -0.348824     -0.029005     -0.014958
O	      8.50897      6.48476      8.62845         0.001619     -0.078983     -0.156314
O	      2.25938      6.29573      6.30020         0.078665     -0.225752      0.034444
O	      4.40214      8.69878      6.15636         0.262315     -0.170699      0.195975
O	      4.17566      6.44015      8.37692         0.052768     -0.035007     -0.026925
O	      6.32672      8.66245      8.32722         0.178610     -0.072089     -0.063284
O	      6.41602      6.56034     10.58507         0.103709      0.312303     -0.058902
O	      8.37340      8.60983     10.53716        -0.068926     -0.006915     -0.124685
