# total energy = -229.40989483 eV
 
CRYSTAL
PRIMVEC
0.028205 6.345156 6.160592 
6.384879 -0.013492 6.203022 
4.232146 4.233451 0.015567 
PRIMCOORD
36 1
Li	      6.55519     10.46509      8.44508        -0.002942     -0.033211     -0.016492
Li	      4.38394      8.29529      8.42062         0.046328     -0.015094     -0.004690
Li	      4.23495      6.51807     10.06297         0.007449     -0.009565      0.061357
Li	      6.25512      8.43882     10.09937         0.011374     -0.005441      0.048334
Li	      2.37134      2.03089      4.03048         0.019944     -0.056442     -0.040106
Li	      4.25276      4.02178      4.02807         0.018019     -0.035526     -0.053279
Li	      6.43903      4.33282     10.21714        -0.030269      0.031545     -0.033702
Li	      8.40546      8.61919      8.39821        -0.034148      0.012298      0.047860
Li	      6.23914      6.42346      8.39427        -0.021224      0.038212      0.022642
Sc	      6.39906      8.38656      6.26529         0.053770      0.018161      0.132884
Ti	      8.60785      8.46236     12.29461         0.099557     -0.027252     -0.379101
Ti	      4.22993      6.36283      2.26669        -0.041221      0.052639      0.309792
Ti	      6.24590      4.29607      6.07327        -0.205381      0.083721     -0.301545
Fe	      6.34641      0.04657      6.13866         0.102403     -0.016856      0.029538
Co	      8.50190      6.32797     10.29816        -0.021479      0.117617     -0.000943
Ni	      2.12175      4.21154      2.13393        -0.005731      0.018189      0.024455
Ni	      4.27177      2.08445      6.10825        -0.041654      0.036868      0.182150
Ni	      4.26131      6.33850      6.27559        -0.025809     -0.000863     -0.183345
O	      1.96417      2.10863      1.96742        -0.085372     -0.081777     -0.017839
O	      4.18908      4.40790      1.93580         0.094342      0.099301      0.012477
O	      4.26516      2.09795      4.18788        -0.025654      0.002108     -0.198611
O	      6.38299      4.21389      4.28727        -0.017325      0.006684      0.358638
O	      6.43808      2.14732      6.25710         0.097718      0.024162      0.024319
O	      8.48997      4.11576      6.20008         0.000264     -0.150759     -0.060920
O	      2.13052      4.40447      4.12128        -0.040512      0.068897      0.154535
O	      4.12931      6.37249      4.13769        -0.028980     -0.009924     -0.313052
O	      4.33870      4.20513      6.19084         0.172157      0.001623     -0.036809
O	      6.38989      6.24019      6.19179        -0.020760     -0.100792     -0.028534
O	      6.44254      4.05753      8.14905        -0.055478     -0.154726     -0.026635
O	      8.62275      6.29279      8.31298         0.143384      0.050836      0.013801
O	      2.10768      6.40762      6.05037        -0.068260      0.031784     -0.020617
O	      4.15587      8.52874      6.19798        -0.146013      0.075518      0.004610
O	      4.27240      6.33616      8.19165        -0.026090     -0.006773      0.177885
O	      6.38713      8.47962      8.17520         0.012335      0.003430     -0.183308
O	      6.57889      6.34332     10.39474         0.059703     -0.033040     -0.068325
O	      8.53141      8.31040     10.44191         0.005554     -0.035553      0.362577
