# total energy = -232.45529982 eV
 
CRYSTAL
PRIMVEC
0.029962 6.284273 6.405450 
6.209268 0.017515 6.417620 
4.138195 4.196696 0.012673 
PRIMCOORD
36 1
Li	     10.29487      4.21839      6.47610        -0.016358      0.022262      0.025326
Li	      2.18414      6.29120      8.57654        -0.108956      0.061588      0.022986
Li	      4.15130      8.28849      8.57599        -0.017359      0.008754      0.071153
Li	      8.37903      4.24270      8.46075        -0.062894      0.036467     -0.030289
Li	      4.17986      2.12818      6.42430         0.017879      0.035599      0.087822
Li	      8.24051      6.32744     10.61050         0.056453     -0.073762     -0.140864
Li	      4.19831      6.31536      6.66779         0.010559      0.026795      0.056507
Li	      4.11243      4.29358      8.55079         0.037969     -0.146846      0.037405
Li	      6.14267      6.36150      8.58116        -0.015969     -0.003556      0.010966
Sc	      6.23058      4.25910     10.59941         0.062827     -0.311184     -0.066894
Ti	      2.10157      8.28775      6.47323        -0.277127     -0.045069      0.127385
Ti	      6.24445      4.36195      6.52157         0.000260      0.206884      0.133362
Ti	      2.15007      4.34103      6.58158         0.018820      0.118677     -0.133457
Fe	      4.13323      4.20228      4.15540        -0.051377      0.268114      0.083858
Co	      6.22074      8.30034     10.61551         0.177450      0.059770      0.093539
Co	     10.18115      6.22961      8.53876         1.294580      0.233239     -0.384658
Cu	      4.17762      6.31531     10.57339        -0.051825     -0.002098      0.205302
Cu	      2.14227      2.09384      4.20228        -0.036203      0.064109      0.000067
O	      4.13343      6.28467      8.68909         0.020133      0.013795     -0.212724
O	      2.01168      2.11744      1.91180        -0.364879     -0.157333     -0.167449
O	      4.13824      4.23360      2.22520        -0.281590      0.385586     -0.106555
O	      4.11002      2.22950      4.28057         0.082029     -0.022541     -0.049761
O	      6.14599      4.16450      4.45034        -0.007217     -0.170705     -0.074653
O	      6.30500      2.17492      6.41331         0.094370      0.033838     -0.147525
O	      8.16305      4.09595      6.31802        -0.047796     -0.027659      0.025263
O	      2.11237      4.16741      4.46105        -0.035278      0.140605      0.089200
O	      4.30263      6.26535      4.14592        -0.187288     -0.048652      0.223347
O	      4.11601      4.24165      6.38065        -0.027565      0.049435      0.013205
O	      6.23086      6.22596      6.51641         0.040918     -0.204807      0.199486
O	      6.24832      4.15836      8.43145        -0.207193     -0.197710     -0.094231
O	      8.41298      6.29651      8.53706        -0.126867     -0.276208      0.085874
O	      2.09507      6.24658      6.44462         0.024775     -0.089292      0.070636
O	      4.16147      8.37492      6.35440        -0.007218      0.010361      0.036094
O	      6.23319      8.39131      8.40013        -0.076594     -0.005612     -0.060620
O	      6.22848      6.28718     10.65462        -0.005667      0.041064     -0.043992
O	      8.31304      8.27069     10.85816         0.074198     -0.033905      0.014892
