# total energy = -230.36130125 eV
 
CRYSTAL
PRIMVEC
0.055130 6.310583 6.206198 
6.298010 0.055335 6.205948 
4.238592 4.246668 -0.003033 
PRIMCOORD
36 1
Li	      4.22791      4.26740      0.20492        -0.015411      0.019334      0.024406
Li	      6.22684      4.34674      2.03698        -0.064392      0.019960     -0.053562
Li	      4.12436      2.27069      2.02215        -0.010925      0.063723     -0.066421
Li	      0.07774      2.13124      2.10460        -0.047816     -0.030136     -0.053618
Li	      2.10021      4.17921      2.06199         0.041029     -0.001687     -0.015004
Li	      6.33571      4.25454      6.38960         0.052729     -0.031048     -0.081617
Li	      0.12753      4.11589      3.97204         0.009327     -0.061369      0.148220
Li	      4.41965      4.24877      8.19388        -0.051575     -0.009253     -0.061102
Li	      6.34774      6.18611      8.25455         0.032283      0.041204     -0.034109
Sc	      4.30260      6.30641     10.21292         0.059064     -0.064399      0.008055
Ti	      6.34769      8.50893     10.22742         0.051204     -0.003911     -0.085481
Ti	      8.51736      6.33463      6.39484         0.046083     -0.045212      0.307446
Ti	      6.25646      8.49949      6.32276        -0.318636      0.021660      0.116703
Fe	      2.20399      6.27489      4.07338        -0.165982      0.203160     -0.062092
Co	      2.12721      2.15023      0.14498        -0.049383      0.142853     -0.396194
Co	      4.28522      6.29540      6.28732        -0.116672      0.112778     -0.177980
Ni	      2.04846      2.16316      4.03942         0.067959     -0.064800      0.060489
Ni	      4.23351      4.25263      4.04862        -0.030641      0.019375      0.101491
O	      6.32341      4.27155      8.29828         0.101164     -0.128031      0.030698
O	      2.09748      2.14337      2.04581         0.031380     -0.107487     -0.355938
O	      4.22450      4.26373      2.11442        -0.049746      0.072813     -0.167226
O	      4.30238      2.12053      4.16989        -0.039297     -0.118577      0.004421
O	      6.36464      4.16945      4.09847         0.167884      0.021937      0.012963
O	      6.19187      2.19530      6.07644        -0.011934      0.019776      0.041945
O	      8.44501      4.42623      6.16092        -0.036177      0.055691     -0.056176
O	      2.13837      4.28024      4.24097        -0.078494     -0.055484      0.073764
O	      4.20923      6.30400      4.21997         0.089047      0.148639      0.615349
O	      4.10156      4.12373      6.18043         0.055832      0.083805      0.093151
O	      6.47845      6.50117      6.10415        -0.010679     -0.097279      0.152273
O	      8.46374      6.40214      8.24662        -0.002206      0.012293     -0.306054
O	      2.13612      6.21838      6.12477         0.124725     -0.028128      0.174753
O	      4.36597      8.42588      6.21056         0.054930     -0.206334      0.109036
O	      4.30530      6.29028      8.24424         0.002473     -0.001599     -0.462772
O	      6.36769      8.49619      8.26596         0.010481      0.003767      0.057412
O	      6.42071      6.55656     10.28729        -0.039773      0.008253      0.006467
O	      8.33611      8.45152     10.45999         0.142144     -0.016288      0.296303
