# total energy = -235.00221887 eV
 
CRYSTAL
PRIMVEC
-0.013432 6.309624 6.326081 
6.231542 0.015375 6.296804 
4.157898 4.190639 0.006798 
PRIMCOORD
36 1
Li	      2.15173      6.34065      8.38582         0.060302     -0.030566     -0.068250
Li	      4.11898      0.03103      4.16158         0.055802     -0.079423      0.030667
Li	      2.09421      4.19876      2.11668        -0.165448     -0.020972     -0.105610
Li	      6.19143      6.28931      4.22385         0.032854     -0.061347      0.059162
Li	      8.29543      6.28037      6.33533        -0.039684     -0.098901      0.087627
Li	      4.15458      8.26952      4.23157        -0.125273      0.072041     -0.086150
Li	      8.34450      6.34805     10.49744        -0.090059      0.062220     -0.017987
Li	      4.18921      6.28267      6.32675         0.060011      0.091340      0.125841
Li	      4.15559      4.23961      8.41863         0.090414      0.017326      0.066537
Sc	      6.23410      6.20968      8.45469         0.021120     -0.415618     -0.223291
Ti	      2.16452      2.18027      0.01979        -0.073620      0.349553      0.050325
Ti	      6.21104      2.13411      4.15685         0.410399     -0.065911      0.104782
Ti	      2.19007      4.23789      6.14355        -0.232263     -0.230632      0.222149
Fe	     10.26470      6.28748      8.50174         0.080620      0.458219     -0.719054
Co	      4.09937      2.06816      2.16302        -0.032177     -0.038723     -0.067981
Co	      4.14793      4.25748      4.18476         0.558553     -0.395551      0.541518
Co	     -0.00224      6.29851      6.30940        -0.119562     -0.109598     -0.363125
Cu	      6.18152      4.27891      6.30643         0.101966      0.137199     -0.069244
O	      2.00235      2.06271      1.94265         0.018723      0.006714     -0.019243
O	      4.14649      4.19810      1.94242         0.046114     -0.045403      1.235141
O	      4.26683      2.18369      4.24978        -0.245083      0.995770     -0.009764
O	      6.22217      4.10044      4.37255        -1.168926      0.129407     -0.761188
O	      6.32226      1.93746      6.27244        -0.082492     -0.299306      0.029117
O	      8.39372      4.08340      6.28793         0.385385     -0.144970     -0.027946
O	      2.06251      4.19924      4.30995         0.984119      0.075309     -0.153963
O	      4.15826      6.26527      4.12070         0.066356     -1.118432      0.279842
O	      4.03923      4.28389      6.32644        -0.612000      0.071843     -0.983402
O	      6.21056      6.51237      6.36877        -0.004259      0.726135     -0.042105
O	      6.21263      4.13911      8.26110         0.007022     -0.116381      0.888413
O	      8.32822      6.28300      8.40031        -0.000710      0.019173      0.053580
O	      1.94376      6.24769      6.32746         0.279454     -0.072349     -0.060060
O	      4.12840      8.50914      6.30139         0.009093     -0.203653     -0.048904
O	      4.19253      6.37731      8.43271        -0.073760      0.018297      0.101329
O	      6.25734      8.40185      8.55498         0.025324      0.042401      0.113103
O	      6.20644      6.43910     10.60224        -0.054918      0.215532     -0.110434
O	      8.19069      8.40496     10.69631        -0.173398      0.059258     -0.051433
