# total energy = -235.80731542 eV
 
CRYSTAL
PRIMVEC
0.027956 6.347398 6.314847 
6.342937 0.020968 6.321991 
4.227872 4.235501 0.014689 
PRIMCOORD
36 1
Li	      8.42730      2.17417      6.34357        -0.029375      0.006954      0.129401
Li	      4.26879      6.34653      2.19738         0.090972      0.064839      0.043507
Li	      2.08957      4.25568      2.24464        -0.045234     -0.126983     -0.041744
Li	      2.09109      2.20842      4.16815        -0.010935     -0.001756     -0.115482
Li	      4.13916      4.26302      4.04547        -0.012352      0.001366     -0.032098
Li	      8.46238      6.25664      6.40093        -0.088556     -0.041285      0.023198
Li	      6.50376      4.27486     10.41181        -0.000325      0.009408     -0.065289
Li	      2.12511      6.24347      4.13416         0.013524      0.017969      0.046302
Li	      6.39427      6.31254      8.45854         0.002717      0.011426     -0.030145
Sc	      2.16198      4.20627      6.18868         0.113082      0.032888      0.003119
Ti	      6.28091      2.13941      4.23406         0.172981      0.187077     -0.154018
Ti	      4.24568      6.38953      6.15896        -0.066440     -0.131335     -0.387967
Ti	      8.62202      8.32088      8.49799         0.277366     -0.380924      0.283769
Fe	     10.43859      4.30881      6.37462         0.085171      0.027515     -0.081866
Co	      4.00898      2.12140      2.13176         1.746183      0.290982     -0.030743
Co	      6.41306      4.22317      6.34856         0.070269      0.465202      0.201432
Co	      6.33651      4.29330      2.17259        -0.379769      0.120862      0.177902
Ni	      4.27400      6.36213     10.53379         0.041554     -0.014640      0.006233
O	      2.19260      2.13129      2.14336         0.087439     -0.261055     -0.029508
O	      4.29092      4.16379      2.00472        -0.397318     -0.825512      0.149717
O	      4.36112      2.11054      4.13342        -0.318595      0.157195     -0.630181
O	      6.39465      4.12629      4.30977        -0.238853     -0.406117     -0.392239
O	      6.36063      2.10526      6.20042        -0.070610     -0.387482     -0.179957
O	      8.50097      4.25653      6.28181         0.246594      0.002282      0.141172
O	      2.14419      4.24213      4.25294        -0.029411      0.065624      0.100666
O	      4.23023      6.35431      4.36092         0.006991      0.031811      0.431528
O	      4.23849      4.37903      6.46418        -0.182299      0.142171      0.008388
O	      6.20576      6.36905      6.34521        -0.146722      0.078195     -0.056471
O	      6.26753      4.25707      8.38098        -0.484375     -0.100135      0.447857
O	      8.48524      6.51699      8.41370         0.083930      0.348257      0.019327
O	      2.22547      6.33068      6.37297         0.020306     -0.004686     -0.290937
O	      4.27520      8.41065      6.39186        -0.350846      0.089482      0.573155
O	      4.20862      6.36729      8.42062        -0.031622      0.626119     -0.056084
O	      6.41162      8.46358      8.52305        -0.178529     -0.047248      0.068137
O	      6.37134      6.48150     10.65400         0.060561      0.083281     -0.025057
O	      8.38811      8.52637     10.40557        -0.057471     -0.131749     -0.255023
