# total energy = -227.93000515 eV
 
CRYSTAL
PRIMVEC
-0.005000 6.428712 6.056777 
6.472960 0.019077 6.032030 
4.349606 4.304160 -0.021897 
PRIMCOORD
36 1
Li	     10.80194      4.34923      6.03298        -0.008964     -0.035389      0.057876
Li	      6.44455     10.64454      8.02965        -0.027649     -0.036073     -0.013405
Li	     10.62790      6.58732      8.01484        -0.006479      0.029378      0.005202
Li	      8.71736      4.39406      7.98689         0.006784      0.050456     -0.002935
Li	      4.43638      2.32175      6.07636        -0.018801      0.023028      0.022260
Li	      6.37519      4.21527      6.06142         0.030577      0.026182      0.016646
Li	      2.39493      4.43228      6.06513         0.029097     -0.027722     -0.021366
Li	      4.23181      6.35810      6.07003         0.029138     -0.019863     -0.018308
Li	      4.41236      4.23886      8.00062        -0.048140      0.003085     -0.081520
Sc	      6.55916      6.37902      7.98643         0.095750     -0.065183     -0.094505
Ti	      2.05461      2.06947      0.10290        -0.159563     -0.068179      0.107048
Ti	      8.62872      4.26210      4.03567        -0.082730      0.024308      0.087095
Ti	      6.43660      6.47883      4.10454        -0.222069      0.153695      0.390890
Fe	      4.38594      8.62129      7.96837        -0.029494      0.026370      0.026989
Cu	      6.44463      2.16656      4.02329        -0.109634     -0.039431      0.032293
Cu	      4.32555      4.33165      4.03584         0.301872      0.000847     -0.050281
Cu	      0.03769      4.28800      4.04973         0.019470     -0.050270      0.141038
Cu	      2.22222      6.44204      4.00004        -0.014865     -0.095345      0.004214
O	      4.36010      4.33127      5.87737         0.072977      0.072340      0.292574
O	      2.26448      2.12353      1.97667        -0.021741     -0.002065     -0.129471
O	      4.34899      4.15251      2.15992         0.069281      0.078176     -0.268341
O	      4.28147      1.94772      4.01538        -0.106851     -0.291065      0.021406
O	      6.55680      4.51406      3.98272         0.058100      0.268831     -0.009847
O	      6.60187      2.14155      5.98601         0.022023     -0.006760      0.100937
O	      8.61736      4.13299      5.92637        -0.047567     -0.099568     -0.112617
O	      2.41832      4.22141      4.03577        -0.205140     -0.162780      0.009054
O	      4.57594      6.62301      3.97204         0.307788      0.166345      0.042247
O	      6.53764      6.47804      5.94259         0.058472      0.052290     -0.347105
O	      6.46848      4.34373      8.13457         0.001055     -0.020666     -0.187363
O	      8.60954      6.47634      8.13072         0.084984     -0.016711     -0.128404
O	      2.15506      6.58249      5.92086        -0.005639      0.062254      0.127050
O	      4.12654      8.59965      6.02294         0.047791     -0.034649     -0.057547
O	      4.36901      6.49544      8.12833        -0.106161     -0.005049      0.043981
O	      6.36664      8.54979      8.10860         0.063781      0.013596     -0.083753
O	      6.24275      6.29724     10.09996        -0.102130     -0.103856      0.070292
O	      8.45748      8.66731     10.07113         0.024675      0.129443      0.007676
