# total energy = -92.79906731 eV
 
CRYSTAL
PRIMVEC
2.037543 4.166160 2.011067 
4.004690 -2.052931 -1.999767 
0.005461 4.187122 -4.068625 
PRIMCOORD
16 1
Li	      1.98959      2.15216     -0.08552         0.007218     -0.125100      0.094446
Li	      3.96171      4.16679     -0.04823         0.231579     -0.075663      0.018911
Li	      3.94547      2.10514     -1.95195         0.114609     -0.042029      0.024664
Li	      2.04747      4.02576     -1.94160        -0.109807      0.235733      0.051732
Mn	      2.02063      4.11802      1.93181        -0.594237      0.564990      1.366717
Mn	      1.96914      2.07173     -3.96142        -0.200122     -0.828966     -1.092854
Ni	      0.01890      2.03109     -1.95980        -0.745100      0.084399      0.094966
Ni	      3.94560      4.15237     -4.00412         0.283627      0.290881     -0.527807
O	      3.98211      4.31396     -2.04295         0.238897      0.160680      0.488355
O	      3.85672      2.11575     -4.06656         0.549941     -0.360510     -0.408018
O	      4.06762      2.01376      0.08825         0.271148      0.064022      0.218567
O	      3.98948     -0.17739     -1.95510         0.187543     -0.719614     -0.114137
O	      1.95245      4.13253      0.11520         0.072492     -0.049454     -0.307745
O	      1.99830      2.07468     -2.12759         0.264715     -0.168867      0.608583
O	      2.08587      6.30180     -2.00953        -0.187419      0.466857     -0.262913
O	      1.90203      3.97997     -3.99763        -0.385083      0.502642     -0.253469
