# total energy = -227.93587422 eV
 
CRYSTAL
PRIMVEC
0.019305 6.335450 6.303605 
6.318497 0.016119 6.306870 
4.223666 4.237269 -0.000601 
PRIMCOORD
36 1
Li	      2.10189      8.39013      6.32823        -0.019984     -0.065882     -0.039738
Li	      6.27185      2.26658      8.39832         0.004011      0.004627     -0.003206
Li	      6.25602      6.44608      4.27377        -0.015520      0.052610      0.047773
Li	      6.30616      4.31072      6.49674        -0.002607      0.057583     -0.037990
Li	      0.04671      4.11625      4.06326        -0.005476     -0.045735      0.033992
Li	      8.46513      6.36504     10.43425         0.011568     -0.017258     -0.035680
Li	      4.27045      6.32917      6.29634         0.031512      0.021341     -0.000416
Li	      4.35715      4.14801      8.37641         0.047475     -0.021590      0.037421
Li	      6.42250      6.23451      8.32712         0.029347     -0.026697      0.009260
Sc	      8.41434      4.22994      4.29117         0.000326     -0.160505      0.007884
Ti	      4.13999      8.39024      8.31970        -0.150090     -0.213954     -0.260189
Ti	      6.42776      8.37383     10.55881         0.340706     -0.171197      0.157197
Ti	      4.19894      4.42439      4.23882        -0.105537      0.686019      0.169197
Fe	      6.35425      8.42721      6.30206        -0.042485      0.125235      0.030950
Ni	      0.01962      0.00883      0.02109         0.020008     -0.015573     -0.040083
Ni	      2.08293      0.02101      2.06405        -0.021205      0.075951     -0.018803
Ni	      8.35111      4.29663      8.38967         0.055885     -0.071316      0.087107
Ni	      8.40988      6.38087      6.39074        -0.013871      0.005677     -0.048696
O	      6.41507      4.23294      8.42992        -0.052686      0.014546     -0.003736
O	      2.23038      2.15796      2.08464         0.144440      0.053151      0.016057
O	      4.18014      4.13552      2.18965        -0.078262     -0.034615      0.070745
O	      4.31817      2.13750      4.10508        -0.029586      0.025344     -0.058408
O	      6.25981      4.13376      4.15562        -0.060102     -0.034849      0.066455
O	      6.28408      2.09894      6.14309         0.102140      0.097460     -0.200940
O	      8.49049      4.29901      6.31676        -0.122949     -0.122629     -0.113760
O	      2.27012      4.23332      4.24209         0.159324      0.031177     -0.012446
O	      4.27431      6.22412      4.20129        -0.052654     -0.552622     -0.005871
O	      4.18905      4.21160      6.18179         0.112228      0.144044     -0.087583
O	      6.37568      6.50929      6.29327        -0.079195     -0.225991      0.030891
O	      8.45665      6.25616      8.38037         0.039646      0.074654      0.122201
O	      2.05882      6.21065      6.37873         0.103604      0.148375     -0.120908
O	      4.30017      8.48688      6.41171        -0.119240     -0.092898      0.216371
O	      4.16855      6.49298      8.45686         0.084126      0.203350     -0.003455
O	      6.22660      8.51778      8.43771        -0.069337     -0.091198      0.128819
O	      6.28816      6.47084     10.52275        -0.007900      0.161674     -0.126814
O	      8.31163      8.51180     10.47616        -0.237660     -0.018311     -0.013601
