# total energy = -233.20801833 eV
 
CRYSTAL
PRIMVEC
-0.023687 6.335464 6.353033 
6.334200 0.007830 6.321190 
4.233818 4.213630 -0.005690 
PRIMCOORD
36 1
Li	      2.30017      6.28772      8.45588         0.031495     -0.057480      0.023605
Li	      4.25806      8.18752      8.49892         0.030649     -0.049788     -0.012876
Li	      4.39309      6.32105     10.37668        -0.030923      0.016435      0.071622
Li	      6.36564      8.25764     10.41036         0.003402      0.039928     -0.000366
Li	      2.12929      2.09011      4.16950         0.064059     -0.019870      0.036730
Li	      6.20094      4.43442     10.58648        -0.047720      0.011790      0.020014
Li	      8.24833      6.41400     10.54538        -0.056732      0.023908      0.061896
Li	      4.16299      6.37119      6.54080        -0.026770     -0.001073      0.046398
Li	      6.13382      6.43953      8.68472         0.010847      0.018867     -0.046347
Sc	      6.22001      8.49195      6.43274         0.122151     -0.146284      0.011611
Ti	      4.25618      6.35733      2.23514         0.013308      0.106570      0.224372
Ti	      4.23546      4.08963      4.17089         0.022402     -0.367197      0.309035
Ti	      6.34325      4.34570      6.23180         0.085421      0.421818     -0.251492
Fe	      2.17999      8.32272      6.18534        -0.021930      0.104773      0.161425
Fe	      8.40612      4.25522      8.50050        -0.057794      0.009064     -0.063948
Co	      4.25114      2.10504      6.27977         0.023496      0.171109      0.140974
Ni	      6.31716      6.34726     12.54109        -0.129595      0.064902      0.144522
Ni	      8.37331      8.56984      8.63189        -0.008106     -0.116544     -0.140477
O	      1.96822      2.21188      2.03996        -0.120836      0.017286     -0.051798
O	      4.15519      4.31533      2.17577        -0.036139      0.056916      0.095709
O	      4.22517      2.23653      4.21605        -0.006716      0.211501      0.471693
O	      6.20997      4.23579      4.36877        -0.092524     -0.024070      0.131440
O	      6.34663      2.19834      6.41733        -0.473136     -0.032359      0.051520
O	      8.33257      4.16668      6.42387        -0.152248     -0.298865      0.089468
O	      2.26035      4.20149      4.19135         0.121324      0.032740     -0.074297
O	      4.27413      6.21700      4.06149        -0.013615     -0.030572     -0.428031
O	      4.29276      4.26959      6.21285         0.165490      0.206320     -0.150190
O	      6.39852      6.23690      6.30428         0.420896     -0.136479     -0.042045
O	      6.33081      4.14365      8.36277         0.171762     -0.220906     -0.043634
O	      8.58796      6.27294      8.35858         0.023995     -0.006501     -0.724661
O	      2.04110      6.36254      6.36125         0.077227     -0.044594      0.060417
O	      4.16995      8.46680      6.35869         0.013348     -0.081092      0.045452
O	      4.20583      6.29087      8.46585        -0.004169      0.179596     -0.034808
O	      6.38804      8.43139      8.38126        -0.173066     -0.012296     -0.035848
O	      6.30829      6.34155     10.60579         0.060707     -0.010647     -0.120844
O	      8.43993      8.43129     10.63862        -0.009958     -0.036905      0.023760
