# total energy = -236.56087795 eV
 
CRYSTAL
PRIMVEC
0.033004 6.118328 6.317623 
6.450060 0.015072 6.335718 
4.315700 4.106351 -0.005714 
PRIMCOORD
36 1
Li	      4.28745      4.09704      0.16938        -0.010069     -0.010327     -0.040961
Li	      6.30464      4.10454      2.03787        -0.004149     -0.023021     -0.057089
Li	      8.58563      4.10125      4.27715        -0.053213      0.028582      0.082889
Li	      4.30439      6.02611      2.04959        -0.091487      0.068750     -0.064591
Li	      2.33785      4.07824      2.05197         0.003054      0.048534     -0.103731
Li	      4.32178      4.02784      4.03083        -0.022431     -0.003456      0.026460
Li	      6.56506      4.12939      6.37690         0.063618      0.057043      0.044085
Li	      4.32623      6.16674      6.35610        -0.013391      0.032925      0.004956
Li	      6.51126      6.15180      8.39260         0.003028     -0.002104     -0.078639
Sc	      2.23453      6.08835      4.17522         0.132531     -0.055367      0.170135
Ti	      6.29299      2.05743      4.25569        -0.194691      0.032397      0.125330
Ti	      6.31055      6.01172      4.17572         0.031125     -0.341461      0.396892
Ti	      4.37311      4.26836      8.31444         0.432885      0.230228      0.015454
Fe	      2.16052      2.11104      0.14474         0.080766     -0.081581     -0.015173
Fe	      6.45659      4.18876     10.53760        -0.215687      0.011698     -0.090147
Co	      8.64324      6.07213      6.40846        -0.203363     -0.201757      0.112079
Co	      6.44848      8.23408      6.38540        -0.080028     -0.068516      0.029428
Cu	      4.32157      8.16621      8.37404        -0.068725     -0.125257     -0.069246
O	      2.11677      2.01578      2.19458        -0.107367     -0.052209      0.266363
O	      4.31656      3.95386      2.11008         0.035315      0.140821      0.039210
O	      4.40718      2.02009      4.26548         0.294423      0.056644      0.051287
O	      6.43432      4.10983      4.23144        -0.061484      0.224273     -0.038248
O	      6.55786      2.08204      6.16671        -0.111272     -0.014034     -0.184406
O	      8.60050      4.03935      6.37398         0.000173      0.083311     -0.013046
O	      2.04209      4.02387      4.18624         0.134222     -0.237964      0.242383
O	      4.41112      6.14721      4.18390         0.213660     -0.016558      0.015083
O	      4.27208      4.07873      6.46539        -0.278780      0.062495      0.051906
O	      6.53430      6.19558      6.10826         0.018390     -0.365799     -0.527836
O	      6.27873      4.13717      8.56846        -0.184296     -0.013880     -0.052967
O	      8.64473      6.24450      8.46587         0.157551      0.106569     -0.066948
O	      2.22934      6.19953      6.25386        -0.032033      0.484507     -0.010008
O	      4.28790      8.19400      6.19259         0.155745     -0.029248     -0.144773
O	      4.38403      6.15384      8.39783        -0.000770     -0.397665      0.032142
O	      6.67447      8.22087      8.59992         0.133125     -0.011072     -0.107814
O	      6.56720      6.21244     10.52762        -0.074208      0.257571     -0.031207
O	      8.65579      8.20487     10.53041        -0.082168      0.124927     -0.009256
