# total energy = -237.15402727 eV
 
CRYSTAL
PRIMVEC
0.004413 6.298561 6.333213 
6.281038 0.003530 6.334076 
4.210001 4.222212 -0.020289 
PRIMCOORD
36 1
Li	      8.41254      8.38594     12.59374         0.025136      0.039632     -0.035699
Li	      4.22298      8.36910      8.42124         0.047008      0.028259     -0.038866
Li	      6.28435      2.12223      4.24447        -0.039488     -0.000719      0.037573
Li	      4.17357      4.28390      4.35259        -0.041786     -0.002372      0.065670
Li	      6.16046      4.23364      6.34927         0.020087     -0.076670     -0.008918
Li	      4.16096      8.33019      4.24662         0.074513      0.008978      0.033679
Li	      2.29309      6.35997      4.20088         0.035667     -0.012115      0.030351
Li	      4.25558      6.30082      6.22909        -0.046549      0.067082     -0.010420
Li	      6.27269      6.34772      8.31384        -0.000400      0.017975     -0.022361
Sc	      8.30394      4.24457      8.47977         0.015372      0.007786      0.145699
Ti	      0.10932      6.25730      6.23428         0.029040     -0.070500     -0.185297
Ti	      6.29495      4.20388      2.11648        -0.035389     -0.305768      0.112129
Ti	      4.22508      6.29103     10.57771         0.180690     -0.014489      0.087835
Fe	      6.22585      6.35872      4.31262         0.061903      0.146962     -0.075150
Fe	      4.25307      4.13183      8.42972        -0.144951      0.033204     -0.078340
Co	      4.16837      2.15337      6.32043         0.098943     -0.513364     -0.061927
Co	      2.08951      4.21178      6.27637         0.233411      0.053972      0.212279
Ni	      4.21375      6.32047      2.12160        -0.020325      0.020399      0.015810
O	      2.09014      2.03862      2.16397         0.047737     -0.085480     -0.050903
O	      4.27543      4.20682      1.99879         0.138667     -0.011802     -0.108226
O	      4.10564      1.93078      4.17940         0.019902     -0.097109      0.151346
O	      6.35352      4.23828      4.09130         0.105169     -0.004843     -0.165117
O	      6.23071      1.94156      6.38737        -0.482617      0.148794     -0.060413
O	      8.47381      4.16828      6.25971         0.116442      0.198064     -0.134616
O	      2.14149      4.14647      4.18185        -0.012519      0.013053     -0.111356
O	      4.28825      6.30272      4.19053        -0.063302     -0.006811      0.038960
O	      4.16343      4.18797      6.42905        -0.609326     -0.201109     -0.069142
O	      6.32195      6.29389      6.26193         0.487871      0.415803      0.163638
O	      6.26858      4.19718      8.40844        -0.038733      0.026127     -0.022835
O	      8.38798      6.33442      8.48816        -0.020279     -0.020884     -0.101292
O	      2.04398      6.37901      6.44096        -0.195534     -0.140526     -0.044711
O	      4.25834      8.57936      6.32456         0.298819      0.034713     -0.082751
O	      4.08912      6.27895      8.54005        -0.059649     -0.028857      0.063355
O	      6.36775      8.57308      8.40046        -0.034118      0.224308     -0.019579
O	      6.17045      6.35016     10.65320        -0.203797     -0.051978      0.224857
O	      8.38593      8.56737     10.43484         0.012383      0.160285      0.104739
