# total energy = -238.35557469 eV
 
CRYSTAL
PRIMVEC
-0.018999 6.274964 6.329065 
6.418557 -0.015208 6.325650 
4.275619 4.177942 -0.007022 
PRIMCOORD
36 1
Li	      2.14322      2.07555      0.01603         0.046414     -0.051131     -0.049948
Li	      4.34583      8.28053      8.40500         0.001160      0.009854     -0.032162
Li	      6.39077      2.09482      4.20494         0.017950      0.015418      0.058559
Li	      4.19872      2.19185      6.36227        -0.021551      0.047461     -0.030806
Li	      6.23335      4.26835      6.37802        -0.113825      0.006725      0.027297
Li	      6.53670      8.28109      6.44678         0.067942      0.091551     -0.073095
Li	      4.35752      6.17087      6.44727        -0.034368     -0.004250      0.004792
Li	      4.20247      4.19252      8.23789         0.019035     -0.008828      0.025757
Li	      6.37641      6.37050      8.21848         0.015297     -0.021783      0.072303
Sc	      6.39978      6.28526      4.38441        -0.005288      0.002039      0.016055
Ti	      4.31151     10.33074      6.28636         0.156023     -0.453909     -0.240305
Ti	      4.23747      6.24602     10.45959        -0.032767     -0.118146     -0.104553
Ti	      6.38826      2.15261      8.30478        -0.059781      0.258590     -0.011600
Fe	      8.53668      4.18288      8.32615        -0.062790     -0.001904      0.071313
Fe	      4.23654      8.36639      4.25040        -0.012252     -0.045759     -0.050047
Co	      6.46067     10.27690      8.39076         0.095630     -0.104545     -0.057717
Co	      4.29035      4.09957      4.37766        -0.072920      0.063465      0.039316
Co	      8.55995      6.32625     10.57101         0.029182     -0.132973     -0.176797
O	      1.98720      2.06511      2.13556        -0.089865     -0.050750     -0.047515
O	      4.24739      4.22421      2.04407         0.007962      0.011895     -0.098859
O	      4.22922      1.96007      4.20501        -0.006757     -0.105246     -0.000211
O	      6.55424      4.16603      4.17961         0.151748     -0.021656      0.034754
O	      6.41029      1.96770      6.47156        -0.007879     -0.019807      0.187290
O	      8.70048      4.15481      6.33403         0.100466      0.020949     -0.073646
O	      2.07520      4.21447      4.05932         0.137943      0.162451      0.037490
O	      4.27504      6.20907      4.07555        -0.019156     -0.133654     -0.057069
O	      4.26729      4.17670      6.28771         0.010844     -0.011868     -0.019615
O	      6.37336      6.29169      6.31119         0.021782     -0.024953      0.041823
O	      6.53253      4.06924      8.39152        -0.030322     -0.239201     -0.090704
O	      8.68429      6.19119      8.47817         0.077386      0.156907      0.420001
O	      1.97265      6.31058      6.34240        -0.117422      0.013374     -0.231371
O	      4.24499      8.47533      6.36079         0.006230      0.429665      0.113344
O	      4.22325      6.27861      8.56988        -0.025843     -0.015076      0.164312
O	      6.39733      8.50831      8.44813        -0.018334      0.117861     -0.008428
O	      6.29536      6.33461     10.65986        -0.115202      0.058617      0.143122
O	      8.59566      8.45210     10.56184        -0.116668      0.098617     -0.003076
