# total energy = -230.83121267 eV
 
CRYSTAL
PRIMVEC
-0.001613 6.337566 6.250134 
6.389078 -0.025437 6.274182 
4.249063 4.230587 -0.006737 
PRIMCOORD
36 1
Li	      2.10616      8.39204      6.28721        -0.002683     -0.029632      0.023648
Li	      2.17644      6.30836      8.27268         0.035948     -0.044229      0.006366
Li	     10.51018      6.47362      8.38253         0.037189      0.028616     -0.023631
Li	      8.38186      4.33491      8.34282        -0.021664      0.007917     -0.042096
Li	      8.42065      6.37646      6.43181         0.003027      0.030433     -0.079705
Li	      6.36046      4.27352      6.42077        -0.036411      0.019294     -0.040838
Li	      2.19827      6.30273      4.05892        -0.011849      0.027444      0.052985
Li	      4.20289      6.25170      6.24448        -0.035979     -0.035815     -0.006941
Li	      6.53020      6.22031      8.21711        -0.038275      0.039920     -0.039915
Sc	      0.10538      0.07603      0.12207         0.081462      0.029017      0.038361
Ti	      4.15357      8.32066      8.24159        -0.217408     -0.214598     -0.213568
Ti	      8.51184      4.19058      4.28315         0.051528     -0.251895      0.167356
Ti	      6.43014      8.46662     10.41623         0.269864      0.037266      0.061948
Fe	      6.29478      6.38793      4.27079        -0.005337     -0.089164     -0.240671
Fe	      4.15147      4.34187      4.18129         0.048078      0.004830     -0.070119
Cu	      4.42356      4.04075      8.19493        -0.117981      0.134646      0.005714
Ni	      6.41040      4.16427     10.36843        -0.076846      0.041971      0.193876
Ni	      2.18052      4.22251      6.29740        -0.022824      0.014928      0.088319
O	      2.30192      2.05921      2.21213         0.317716     -0.042672     -0.034889
O	      4.26602      4.04220      2.17067         0.011763     -0.087675     -0.020792
O	      4.32704      2.04457      4.09713         0.046079     -0.059226     -0.001437
O	      6.44951      4.14282      4.16847         0.045884     -0.078355      0.009139
O	      6.41155      2.07512      6.06383        -0.004469     -0.028508     -0.063060
O	      8.54973      4.23081      6.11725         0.008084      0.017436     -0.149635
O	      2.12747      4.16610      4.18862         0.037899      0.067967     -0.156250
O	      4.33304      6.30904      4.11714        -0.084642     -0.014117      0.005338
O	      4.22065      4.22645      6.07091         0.088941     -0.038327      0.039730
O	      6.39479      6.37560      6.14063         0.025139     -0.108767      0.184728
O	      6.35506      4.21027      8.41385         0.132207      0.064867     -0.159576
O	      8.54072      6.37688      8.36293        -0.023299     -0.096953     -0.011970
O	      2.07601      6.29711      6.24889        -0.069873      0.090797     -0.007585
O	      4.24731      8.46890      6.32322        -0.067419      0.018968      0.196864
O	      4.25301      6.41882      8.46406        -0.002733      0.231489     -0.004586
O	      6.28562      8.42165      8.45740        -0.113726     -0.014235      0.137462
O	      6.24357      6.39708     10.47639        -0.085086      0.113244      0.034886
O	      8.39959      8.58365     10.44218        -0.202307      0.213116      0.120546
