# total energy = -231.03210244 eV
 
CRYSTAL
PRIMVEC
0.034997 6.199638 6.330166 
6.298753 0.018131 6.346637 
4.233772 4.178494 -0.022021 
PRIMCOORD
36 1
Li	      6.33886      6.24074     12.57280         0.040164      0.015689     -0.042233
Li	      4.25895      2.15118      2.14747        -0.013898      0.004060      0.010329
Li	      4.39592      6.25079     10.52994        -0.057818      0.000214     -0.012062
Li	      2.27044      4.22490      2.12186         0.086949     -0.024773     -0.017163
Li	      4.19897      4.16939      4.09167         0.014576      0.022630      0.040057
Li	      6.39287      4.32772     10.52386         0.015396     -0.042580     -0.028006
Li	      8.26589      6.15585     10.53163        -0.012446     -0.028160      0.004178
Li	      4.21583      6.24027      6.30188         0.016672     -0.026872     -0.028169
Li	      6.33806      6.22663      8.64858        -0.047469     -0.072144      0.003111
Sc	      6.30382      4.17935      6.32349        -0.023976      0.029219     -0.009082
Ti	      2.34006      8.21418      6.26402         0.157902     -0.146055      0.108242
Ti	      2.03855      2.09960      4.07009        -0.209566     -0.096851     -0.186643
Ti	      8.42676      8.35897      8.60534         0.195654      0.247896      0.154543
Fe	      8.48346      6.17622      6.30404         0.019333     -0.031061     -0.064233
Fe	      2.09406      4.18864      6.29747        -0.052503      0.090497      0.050013
Cu	      6.27532      4.16742      2.12784         0.072948     -0.152481     -0.005193
Cu	      4.17528      6.18251      2.18500        -0.215224      0.097140      0.101526
Ni	      6.27404      8.19292     10.51172        -0.046823      0.200483     -0.015499
O	      2.20046      2.14496      2.08132         0.255913      0.253076     -0.067800
O	      4.34391      4.27557      2.10221         0.017098     -0.061101     -0.022383
O	      4.15990      2.08269      4.33396        -0.132318      0.036831     -0.043981
O	      6.33335      4.28131      4.29161        -0.032176      0.052685      0.158241
O	      6.33261      2.11244      6.24174         0.013289     -0.016060      0.032437
O	      8.38097      4.09040      6.38514        -0.014997     -0.023090     -0.003072
O	      2.14408      4.05814      4.34218         0.016352     -0.024561     -0.117309
O	      4.45203      6.25770      4.24888         0.218811      0.006047      0.055949
O	      4.15938      4.09394      6.46859         0.031247     -0.011275      0.079512
O	      6.40738      6.29030      6.21850        -0.026371     -0.053551      0.005341
O	      6.11699      4.06465      8.43948        -0.254970      0.151086      0.079917
O	      8.41067      6.29170      8.30987        -0.158238      0.051507      0.083362
O	      2.17835      6.30814      6.25846         0.011878      0.103873     -0.120008
O	      4.18535      8.29679      6.32686        -0.125372     -0.012268     -0.013229
O	      4.10816      6.03236      8.46045         0.107858     -0.226119     -0.025361
O	      6.38958      8.27827      8.33959         0.058745     -0.140936     -0.055067
O	      6.33044      6.24839     10.53801        -0.021657     -0.195023      0.015987
O	      8.41273      8.28809     10.58170         0.095038      0.022028     -0.106251
