# total energy = -230.62676888 eV
 
CRYSTAL
PRIMVEC
-0.004953 6.395292 6.163448 
6.360898 0.003177 6.154891 
4.245882 4.263236 -0.002951 
PRIMCOORD
36 1
Li	      4.21913      2.13544      2.24214        -0.002406      0.003084     -0.109300
Li	      4.05645      0.30410      4.08739         0.040907     -0.002743      0.010055
Li	      6.07343      2.30688      4.11683         0.020518     -0.038040     -0.007523
Li	      6.52057      6.27844      4.21527        -0.066734      0.031286     -0.016215
Li	      4.37784      4.08478      4.22105        -0.043465      0.059681     -0.005877
Li	      4.13407      2.20893      5.94807        -0.004474      0.020012      0.062727
Li	      4.26520      8.39030      4.18886         0.031157     -0.021589     -0.023395
Li	      2.25668      6.36432      4.17148         0.009098     -0.031448     -0.007044
Li	      4.35811      6.33443      6.01275        -0.003550     -0.049840     -0.030309
Sc	      4.22064      6.41517      2.20081        -0.007165     -0.013100      0.050165
Ti	      6.31855      6.40163     12.07136        -0.024341     -0.040075     -0.336573
Ti	      2.21192      4.21605      2.22988         0.108542     -0.062156      0.388677
Ti	      8.38069      8.69104      8.28418        -0.132138      0.285848      0.033398
Fe	      8.51741      8.50587     12.13700         0.043692     -0.035660      0.051580
Fe	      6.37797      6.41081      8.20871        -0.075495      0.062741      0.160449
Ni	      6.32248      4.33137      2.13956         0.038448     -0.045903     -0.032573
Ni	      6.33350      4.32225      6.02826         0.013409     -0.022525     -0.011929
Ni	      2.13091      4.22519      6.08172         0.016458     -0.011215     -0.076695
O	      2.08140      2.24467      1.93463         0.000371      0.124893      0.047021
O	      4.11708      4.32275      1.96158        -0.205160      0.016340      0.027086
O	      4.20337      2.16628      4.09125         0.002675      0.015885      0.009064
O	      6.36961      4.25259      4.07465        -0.016326      0.016982      0.001750
O	      6.49913      2.02265      6.11783        -0.056723     -0.118326     -0.018259
O	      8.57569      4.16936      6.19304         0.100828      0.047083     -0.037653
O	      2.10424      4.24780      4.03319         0.025460      0.020093     -0.502379
O	      4.23338      6.40631      4.09603         0.027918     -0.034297      0.061569
O	      4.26726      4.21905      6.36818         0.010648     -0.001685      0.154097
O	      6.34450      6.42158      6.29030         0.001485     -0.015578     -0.048345
O	      6.40717      4.29743      8.14189        -0.004856     -0.034183      0.124635
O	      8.44175      6.25765      8.23231         0.062192     -0.028777     -0.021422
O	      1.96512      6.41252      6.25261        -0.090477      0.073711     -0.122331
O	      4.20735      8.71025      6.14714        -0.001229      0.093956     -0.018539
O	      4.27922      6.27896      8.23453         0.013886     -0.256583      0.058020
O	      6.48321      8.47992      8.17982         0.161260     -0.011794      0.101159
O	      6.37932      6.38025     10.24977        -0.025264     -0.013715      0.329331
O	      8.56554      8.42680     10.17306         0.030852      0.017638     -0.244423
