# total energy = -238.61586958 eV
 
CRYSTAL
PRIMVEC
-0.003703 6.500962 6.151008 
6.344300 -0.022918 6.169921 
4.209369 4.326758 0.005043 
PRIMCOORD
36 1
Li	      6.35020     10.65802      8.21303        -0.028099     -0.042705      0.015693
Li	      4.41085      8.53074      8.17100        -0.013455     -0.011663     -0.011449
Li	      4.26873      6.51052     10.17637        -0.047731      0.005112      0.003025
Li	      6.25750      2.20254      4.04462         0.067854      0.061942     -0.059198
Li	      4.20611      6.46477      2.03198        -0.024207     -0.003489      0.015783
Li	      2.16784      4.31289      2.00901         0.000746      0.006069     -0.031779
Li	      6.30499      8.60726      6.26790        -0.024390     -0.039771      0.050193
Li	      4.18998      6.55159      6.24954         0.031088     -0.041020      0.013642
Li	      6.18811      6.64746      8.18667         0.016261     -0.010124      0.026121
Sc	      2.12601      2.11875      4.01837        -0.026394     -0.123449     -0.067147
Ti	      2.06966      2.03748      0.08760         0.056442     -0.135629      0.112357
Ti	      8.44253      6.45156      6.24622        -0.059801     -0.102873      0.376970
Ti	      6.35816      4.44392     10.21358        -0.180690      0.200551     -0.117559
Fe	      4.24652      4.33807      3.99427         0.061979      0.039706      0.140883
Fe	      8.47388      6.41876     10.18801        -0.007088      0.103492     -0.039634
Fe	      4.07152      4.52327      8.19926         0.088784     -0.283536      0.032987
Co	      6.36818      4.31819      6.22462         0.006395     -0.000333      0.047630
Cu	      4.18603      4.28895      0.13510         0.048231      0.013830      0.063029
O	      2.09196      2.21583      1.93077         0.027165      0.002020     -0.168959
O	      4.19083      4.33721      2.11491         0.011926     -0.011623     -0.029606
O	      4.21161      2.25843      4.21240        -0.006644      0.016260      0.005277
O	      6.23478      4.40238      4.14558         0.023755      0.023919      0.052381
O	      6.40629      2.28797      6.12719         0.010235      0.252838      0.022024
O	      8.54446      4.42504      6.17643        -0.135081      0.093636      0.005587
O	      2.02748      4.26889      4.14013        -0.019897     -0.053693      0.006870
O	      4.24991      6.46334      4.13759         0.099978     -0.024991      0.008971
O	      4.22189      4.14453      6.15314        -0.058044      0.009772     -0.069407
O	      6.51911      6.40969      6.15630         0.161509     -0.091712     -0.021416
O	      6.27090      4.32119      8.33029         0.046176     -0.057235      0.142539
O	      8.50102      6.54356      8.15304        -0.038103      0.040406     -0.469406
O	      1.97053      6.65620      6.12312         0.110910      0.156560      0.094256
O	      4.02291      8.53293      6.04880        -0.122772     -0.056110     -0.020377
O	      4.21149      6.39211      8.19462         0.019478      0.275771     -0.036762
O	      6.39802      8.63112      8.22287        -0.125734      0.004189      0.000890
O	      6.35071      6.30797     10.36439        -0.098006     -0.250426     -0.092232
O	      8.54906      8.64960     10.31137         0.127222      0.034309     -0.002179
