# total energy = -92.97849992 eV
 
CRYSTAL
PRIMVEC
2.047886 4.187308 2.021276 
4.025018 -2.063352 -2.009918 
0.005489 4.208376 -4.089278 
PRIMCOORD
16 1
Li	      2.00984      2.17407     -0.08639         0.008645     -0.070976      0.058196
Li	      4.00204      4.20920     -0.04872         0.152894     -0.051329      0.010335
Li	      3.98562      2.12656     -1.97182         0.066296     -0.020109      0.019223
Li	      2.06831      4.06673     -1.96136        -0.068958      0.147834      0.037707
Mn	      2.04120      4.15994      1.95148        -0.385401      0.394167      0.891114
Mn	      1.98918      2.09281     -4.00174        -0.122818     -0.537802     -0.704295
Ni	      0.01909      2.05177     -1.97975        -0.481859      0.067019      0.075597
Ni	      3.98575      4.19463     -4.04488         0.167566      0.169596     -0.349304
O	      4.02264      4.35787     -2.06374         0.117523      0.130061      0.345926
O	      3.89597      2.13728     -4.10794         0.337333     -0.242026     -0.294314
O	      4.10902      2.03426      0.08915         0.187876      0.082147      0.158766
O	      4.03009     -0.17920     -1.97500         0.127715     -0.516071     -0.079497
O	      1.97232      4.17459      0.11638         0.055962     -0.076282     -0.161275
O	      2.01864      2.09579     -2.14924         0.210086     -0.100754      0.357836
O	      2.10710      6.36593     -2.02998        -0.088747      0.326045     -0.205237
O	      1.92139      4.02047     -4.03832        -0.284113      0.298479     -0.160777
