# total energy = -240.84504428 eV
 
CRYSTAL
PRIMVEC
0.010705 6.341942 6.305664 
6.420871 -0.035235 6.351642 
4.257031 4.235008 0.000240 
PRIMCOORD
36 1
Li	      4.32913     10.43062      6.27889         0.002853      0.020944     -0.018297
Li	      2.25582      8.42724      6.21608         0.010543      0.013376     -0.062837
Li	      6.48037      8.41236     10.58278         0.034028     -0.063652      0.038354
Li	      4.30463      6.39838      2.20249         0.018619      0.015036     -0.013282
Li	      2.06881      4.17360      2.22042        -0.065400     -0.032579      0.015874
Li	      2.01882      2.23020      4.17835        -0.020879      0.008704     -0.037522
Li	      4.37679      8.38211      4.30702        -0.040365      0.056304     -0.055042
Li	      2.18021      6.30663      4.28616         0.001971      0.012469      0.022552
Li	      6.19622      8.50797      6.18506         0.003529      0.058735     -0.028087
Sc	      4.12559      4.29341      4.20310        -0.099095      0.084008      0.034716
Ti	      2.10065      0.11143      1.98683        -0.150951      0.489315     -0.089377
Ti	      6.45957      4.12473      6.36355         0.022234     -0.482713      0.137328
Ti	      6.53603      6.40978      8.49294         0.227072     -0.007530      0.475988
Fe	      8.56291     10.48211     10.54896         0.118161      0.015757      0.032620
Fe	      4.30674      2.05370      6.27325         0.179736      0.038888      0.127917
Fe	      8.52418      8.39240      8.53960         0.076247     -0.034762     -0.083148
Co	      4.25274      8.47030      8.33353        -0.043375      0.074579      0.063818
Co	      4.25506      6.50838      6.20423        -0.138524     -0.050699      0.041596
O	      2.17327      1.96144      2.12700        -0.033499     -0.441140     -0.049957
O	      4.46144      4.22538      2.14651         0.177918     -0.053965     -0.074351
O	      4.28793      2.03919      4.31436        -0.013988      0.013150     -0.125404
O	      6.45343      4.19988      4.29066        -0.056220      0.019402      0.019712
O	      6.31683      2.23592      6.39981         0.018518      0.298546     -0.029288
O	      8.43481      4.26342      6.27231        -0.118722     -0.018514      0.087302
O	      2.18089      4.21506      4.19161         0.048322      0.028590      0.063893
O	      4.24024      6.31305      4.21653         0.050972     -0.071177      0.020902
O	      4.41915      4.14885      6.33921         0.056576      0.033345     -0.058965
O	      6.44397      6.21891      6.44689        -0.089432      0.026027     -0.074568
O	      6.42414      4.33497      8.28887         0.109504      0.049653     -0.152871
O	      8.42093      6.29133      8.33022        -0.284829     -0.100741      0.058081
O	      2.16953      6.31135      6.47220         0.086490      0.034947      0.082406
O	      4.25926      8.47655      6.35525         0.032663     -0.106900     -0.038066
O	      4.25838      6.30540      8.49123        -0.045337      0.204128     -0.154010
O	      6.38055      8.36155      8.41001        -0.061685     -0.073952     -0.058014
O	      6.34155      6.33099     10.37244         0.020587      0.010816     -0.309049
O	      8.53870      8.54437     10.52422        -0.034243     -0.068397      0.189077
