# total energy = -236.05755760 eV
 
CRYSTAL
PRIMVEC
-0.005813 6.234351 6.269510 
6.416973 -0.002857 6.265857 
4.275417 4.150481 0.001255 
PRIMCOORD
36 1
Li	      8.58805      8.29229     12.47546        -0.004563      0.030186     -0.014732
Li	      4.30183      6.26430     10.39057         0.046956     -0.029945     -0.021127
Li	      6.38511      8.28268     10.40420         0.018932     -0.029566     -0.073944
Li	      4.27892      6.19442      2.17255        -0.042466     -0.001767      0.033870
Li	      6.30857      6.18639      4.16501        -0.092801      0.007547      0.024387
Li	      4.31114      4.21444      4.11821        -0.006910     -0.000993     -0.000486
Li	      4.23194      8.22971      4.25645        -0.020495      0.009461      0.011347
Li	      4.28081      6.33024      6.22599         0.034099      0.045144      0.032361
Li	      6.41215      6.27637      8.42533         0.037007      0.058114      0.014061
Sc	      4.30156      4.25775      8.43670        -0.013759      0.006151     -0.047033
Ti	      0.05894      6.17070      6.18665         0.121124     -0.086564     -0.327966
Ti	      2.05246      4.03673      2.20320        -0.152265     -0.372382      0.198975
Ti	      6.41161      4.13587      6.09372        -0.102997      0.105459     -0.362584
Fe	      4.27137      2.07406      6.07156         0.036527     -0.010574      0.173565
Fe	      2.30940      6.29619      4.18295        -0.175761     -0.071844      0.066353
Fe	      6.38410      8.23118      6.24030         0.031238     -0.029347     -0.092534
Cu	      4.29596      2.03293      2.19872        -0.023604     -0.023479      0.009321
Ni	      2.14619      0.06228      2.14673        -0.029617      0.043038      0.059604
O	      2.00718      2.17526      2.12246        -0.068490      0.385500      0.068238
O	      4.15379      4.08778      2.02621        -0.139320      0.076263     -0.050311
O	      4.28215      2.07448      4.20273         0.025772     -0.023919     -0.136787
O	      6.42882      4.12957      4.24872         0.026091      0.008383      0.502137
O	      6.32509      2.07362      6.25945        -0.054812      0.033524     -0.006626
O	      8.53795      4.17051      6.34965        -0.022583      0.027734      0.046016
O	      2.10504      4.21135      4.12476        -0.033751     -0.080419     -0.292085
O	      4.17356      6.22127      4.24770         0.154704     -0.001736     -0.003573
O	      4.44855      4.08440      6.27774         0.187624     -0.038158     -0.006415
O	      6.50985      6.09089      6.22768         0.070856     -0.254492     -0.043228
O	      6.51505      4.16702      8.22761         0.092325      0.008979     -0.051903
O	      8.54140      6.16186      8.38922         0.027317     -0.049083     -0.092290
O	      1.97942      6.28680      6.29551        -0.246461     -0.003140     -0.078484
O	      4.24581      8.41800      6.35127        -0.070544      0.239206     -0.011684
O	      4.22385      6.29472      8.37133         0.158475      0.013846     -0.037567
O	      6.53662      8.37625      8.24568         0.226956     -0.108431      0.173652
O	      6.45241      6.20808     10.60699         0.028575      0.015813      0.363397
O	      8.58425      8.24000     10.42735        -0.023380      0.101489     -0.025925
