# total energy = -235.90081590 eV
 
CRYSTAL
PRIMVEC
0.020714 6.314422 6.510698 
6.263559 0.057152 6.475642 
4.197863 4.207435 0.015634 
PRIMCOORD
36 1
Li	      0.08179      6.28361      6.44137         0.004540     -0.036861     -0.037591
Li	      4.25146      8.41207      8.71071         0.071342     -0.039670      0.019402
Li	      6.27262      8.39358     10.82186         0.008528      0.022040     -0.038994
Li	      6.28752      6.38112      4.41396         0.026935     -0.006665      0.054625
Li	      4.15273      4.23889      4.35783         0.033594     -0.030521      0.018233
Li	      2.10623      6.28297      4.41085         0.008394      0.064411      0.091949
Li	      2.04214      4.25753      6.37036        -0.047828      0.025870      0.050108
Li	      4.18995      6.34277      6.42681        -0.020972      0.013419      0.040234
Li	      8.38341      8.44760      8.68382        -0.054107      0.040179     -0.037925
Sc	      2.14395      4.19892      2.31758         0.045767      0.031852     -0.148290
Ti	      2.26879      8.38367      6.45647         0.601112     -0.074105     -0.129378
Ti	      6.38596     10.41862      8.66004         0.368227     -0.587523     -0.048035
Ti	      6.18629      4.27297      6.35621        -0.230965      0.138224     -0.131281
Fe	      4.18331      6.32624      2.32614        -0.110142      0.082560     -0.243781
Fe	      4.20447      2.14626      6.37247        -0.044581     -0.043980      0.105659
Fe	      6.23090      6.40913      8.70285        -0.134698      0.100823     -0.137677
Cu	      4.23251      6.38575     10.80481        -0.170243      0.367365     -0.158209
Cu	      4.24759      8.42010      4.40629         0.269493      0.008975      0.011524
O	      2.02945      2.06728      2.08028        -0.028804      0.079462      0.096135
O	      4.26843      4.30793      2.26004        -0.125055      0.027570      0.100730
O	      4.21091      2.05187      4.47439        -0.047815      0.044160     -0.214277
O	      6.36564      4.23806      4.38862        -0.155968      0.057217      0.069296
O	      6.29724      2.24970      6.52303         0.024585      0.016617      0.013007
O	      8.30412      4.18626      6.62306         0.033454     -0.080053      0.274067
O	      2.03494      4.24074      4.31827         0.016533      0.040922      0.092441
O	      4.18162      6.46004      4.23347        -0.043306     -0.135648      0.274297
O	      4.30707      4.17164      6.39314         0.283961      0.050016     -0.018560
O	      6.35384      6.21004      6.54964        -0.033240     -0.100270     -0.105371
O	      6.28536      4.19870      8.40098        -0.012189     -0.100643     -0.140144
O	      8.43543      6.33824      8.49744         0.098716     -0.043037      0.031665
O	      2.08060      6.44447      6.67342        -0.042757      0.147925     -0.002276
O	      4.08128      8.44914      6.64915        -0.447052      0.013756      0.075684
O	      4.03914      6.32902      8.59661        -0.149919     -0.017449     -0.084721
O	      6.28704      8.57701      8.67852         0.005046      0.314484      0.042961
O	      6.21728      6.28007     10.73331        -0.035681     -0.276317      0.262663
O	      8.41785      8.49568     11.03473         0.035097     -0.115104     -0.048169
