# total energy = -236.78494107 eV
 
CRYSTAL
PRIMVEC
0.012014 6.327267 6.351646 
6.368398 0.008440 6.355215 
4.237131 4.212238 0.014058 
PRIMCOORD
36 1
Li	      8.38883      2.08747      6.37310        -0.069499     -0.007874      0.009074
Li	      2.28064      6.36862      8.49874         0.101529      0.042423     -0.034217
Li	      4.20221      2.00198      2.22166        -0.010544     -0.000826      0.039027
Li	      6.41205      2.17989      4.23512         0.025956      0.010091      0.012496
Li	      6.38524      6.27774      4.23235         0.017726     -0.025016     -0.001150
Li	      6.39222      4.18926      6.27309         0.020232     -0.043393     -0.041603
Li	      8.45620      6.34097     10.56881        -0.038666      0.030201      0.001672
Li	      4.24875      6.31906      6.45338         0.007004      0.001576      0.040123
Li	      8.44063      8.52508      8.53634        -0.042785      0.035307      0.043998
Sc	      4.25980      2.10079      6.31764         0.071757      0.028042     -0.119435
Ti	      2.15599      4.09475      2.14139         0.059429     -0.468476     -0.102511
Ti	      4.11306      8.31449      4.28172        -0.413744     -0.128959      0.160417
Ti	      2.16261      4.32796      6.42398         0.036649      0.378639      0.249518
Fe	      6.42884      6.38842     12.69327        -0.030219     -0.021860      0.017932
Fe	      4.43770      4.20420      4.20934        -0.037259      0.068256     -0.035297
Fe	      6.26530      6.37775      8.49246         0.067935     -0.022793      0.016851
Ni	      8.41567      4.21192      4.19752        -0.045133      0.045105      0.085219
Ni	      6.35209      2.14262      8.45941         0.035253      0.004936     -0.032986
O	      2.09110      2.23805      2.08822         0.087737      0.433166      0.060434
O	      4.10870      4.26830      2.23095        -0.178223     -0.141497     -0.020288
O	      4.26253      2.17485      4.25608         0.000470      0.015673      0.029150
O	      6.33014      4.24636      4.24181         0.085835     -0.015630     -0.029330
O	      6.32953      2.08026      6.42198        -0.035227      0.151898     -0.102765
O	      8.45671      4.22785      6.47556        -0.054024     -0.012325      0.161737
O	      2.08852      4.20875      4.19321        -0.033064     -0.009418     -0.066855
O	      4.23411      6.39142      4.18642        -0.009348      0.147781      0.108105
O	      4.13426      4.22491      6.21271        -0.147259     -0.004957      0.084639
O	      6.38632      6.44608      6.46421         0.014979      0.037117     -0.086602
O	      6.48260      4.24494      8.59201         0.015208      0.102255      0.061902
O	      8.43919      6.21636      8.45539        -0.129813     -0.030795      0.013583
O	      2.14611      6.18929      6.37702         0.134822     -0.345233     -0.028119
O	      4.39638      8.47044      6.20021         0.019480     -0.130442     -0.167417
O	      4.33341      6.32432      8.50540        -0.019590     -0.000503     -0.072737
O	      6.39632      8.38581      8.33208         0.025853      0.075570     -0.227523
O	      6.31528      6.20619     10.51414         0.122954     -0.079614     -0.033942
O	      8.62458      8.44091     10.61637         0.343590     -0.118426      0.006897
