# total energy = -240.47918160 eV
 
CRYSTAL
PRIMVEC
-0.019480 6.387682 6.354790 
6.397864 0.004775 6.330677 
4.273276 4.250278 -0.004803 
PRIMCOORD
36 1
Li	     10.47769      6.44872      8.43985        -0.068993      0.032165     -0.021739
Li	      8.49841      4.36892      8.51331        -0.000705     -0.039412     -0.017579
Li	      6.34598      6.43224      4.40225        -0.085988      0.049726     -0.013217
Li	      8.45656      6.52629      6.40936         0.010242     -0.002450     -0.026941
Li	      6.23667      4.33581      6.42381        -0.002157     -0.016032     -0.047664
Li	      2.25097      6.25537      4.12727        -0.013669     -0.004011      0.009988
Li	      2.25448      4.16835      6.26053        -0.037705     -0.010269      0.009600
Li	      4.37466      6.23787      6.26160         0.035537      0.027474      0.008338
Li	      4.35113      4.13427      8.35787        -0.013158     -0.005386      0.009564
Sc	      0.10893      4.11957      4.19606         0.162067     -0.140320      0.055202
Ti	      4.18078      2.15098      2.00657        -0.188293      0.070233     -0.206297
Ti	      6.48179      8.45109     10.64296         0.104263      0.053437      0.148269
Ti	      8.45477      4.35271      4.26436        -0.075344      0.046595      0.248007
Fe	      4.29107      4.28211      0.06570        -0.045526     -0.011221      0.082606
Fe	      2.10010      2.11247      0.03941         0.043423      0.033455      0.022369
Fe	      2.13515      6.35190      8.40197         0.023054      0.005967      0.004483
Fe	      6.56384      6.30786      8.23657        -0.136258      0.187686      0.281896
Co	      4.08892      4.38987      4.29202        -0.087127      0.123705      0.065827
O	      2.32066      2.12888      2.15749         0.288652      0.048773      0.117532
O	      4.26917      4.12970      2.30998        -0.080158     -0.163650      0.128599
O	      4.36302      2.02274      4.17048         0.031320     -0.108176      0.028263
O	      6.53646      4.12578      4.16521         0.173380     -0.097381      0.104302
O	      6.34732      2.17093      6.16797        -0.035441      0.056696     -0.233202
O	      8.63474      4.18701      6.15543        -0.073306      0.064362     -0.229522
O	      2.11782      4.24000      4.25061        -0.122308     -0.003449     -0.028818
O	      4.26863      6.36488      4.21086        -0.006384      0.094439     -0.037238
O	      4.24118      4.28247      6.09990        -0.066444      0.031685     -0.164071
O	      6.39429      6.36682      6.40102        -0.031923     -0.002049     -0.379750
O	      6.36913      4.34878      8.51596        -0.052319     -0.160283      0.074802
O	      8.44615      6.42023      8.42843         0.193798      0.022421      0.046644
O	      2.00189      6.48177      6.41764         0.084435     -0.069917     -0.148456
O	      4.27916      8.51043      6.44754         0.022401     -0.031082      0.211955
O	      4.30710      6.52605      8.61386         0.083501      0.022814      0.042231
O	      6.24837      8.45630      8.62871         0.007244     -0.083320      0.057461
O	      6.26807      6.46777     10.55649        -0.014987     -0.002964     -0.119106
O	      8.42305      8.64497     10.52506        -0.025125     -0.020259     -0.084337
