# total energy = -240.55068771 eV
 
CRYSTAL
PRIMVEC
0.043164 6.426867 6.227727 
6.462516 0.033650 6.237586 
4.321940 4.304396 0.009076 
PRIMCOORD
36 1
Li	      8.60216      8.62312     12.34471        -0.034834      0.013987     -0.038466
Li	      8.69327     10.68735     10.45446         0.026259     -0.020536      0.011039
Li	      6.61328      8.57229     10.47047         0.083172     -0.031215     -0.056124
Li	      4.32932      4.31610      4.33375        -0.002361     -0.010151     -0.016712
Li	      6.35790      4.25704      6.19558        -0.053705     -0.028505     -0.017104
Li	      8.61865      6.55754     10.43469        -0.032613      0.076643     -0.001538
Li	      2.29841      4.30959      6.17397        -0.007836      0.020586      0.002403
Li	      4.34257      6.30375      6.17204         0.006578     -0.056042      0.028461
Li	      6.51964      6.45356      8.33578         0.002582      0.006400      0.023394
Sc	      4.38530      8.57286      8.28362         0.241449     -0.148157     -0.010153
Ti	      2.28721      6.37322      8.27661         0.283889     -0.272428     -0.128547
Ti	      8.53618      4.45423      8.29086        -0.268770      0.397193     -0.110074
Ti	      6.49995      6.41794      4.32026         0.065234     -0.093012      0.535213
Fe	      6.51933      6.51573     12.35896         0.003367     -0.002922      0.020070
Fe	      0.05452      2.11577      2.05328        -0.138630      0.092384      0.024260
Fe	     10.71823      8.64913     10.47740        -0.037090     -0.000752     -0.127846
Fe	      4.30867      4.32001      8.26358         0.034558     -0.051988      0.310493
Ni	      4.33725      2.23282      6.18221         0.046615     -0.202036      0.101473
O	      2.22510      2.14104      2.11293         0.062464      0.022152      0.050990
O	      4.31231      4.25687      2.04942        -0.030234     -0.047837      0.024809
O	      4.15461      2.15856      4.13392        -0.239974     -0.004050      0.002829
O	      6.43411      4.48269      4.03158        -0.058407      0.200847     -0.034964
O	      6.44425      2.09447      6.25225        -0.096533      0.006834     -0.161435
O	      8.72159      4.33084      6.37988         0.011435      0.046505      0.133679
O	      2.15352      4.15795      4.02009        -0.026705     -0.084994     -0.029986
O	      4.48784      6.55207      4.12961         0.199866     -0.054297      0.119683
O	      4.32779      4.25564      6.31765        -0.009864      0.068661     -0.452306
O	      6.51592      6.44911      6.15246        -0.004989      0.045547     -0.360816
O	      6.63269      4.34384      8.34812         0.413557      0.035108     -0.009153
O	      8.64080      6.32889      8.33716        -0.030804     -0.416532     -0.007694
O	      2.08766      6.47176      6.38867         0.027034     -0.017540      0.128768
O	      4.37467      8.69328      6.20310         0.034135      0.026824      0.070656
O	      4.20201      6.50378      8.26619        -0.395545      0.059340      0.006520
O	      6.45270      8.75324      8.39837        -0.093294      0.340088     -0.052625
O	      6.50818      6.36263     10.43973         0.013715      0.054652     -0.157764
O	      8.77123      8.59102     10.30039         0.006278      0.029242      0.178567
