# total energy = -244.25387705 eV
 
CRYSTAL
PRIMVEC
0.024995 6.312939 6.437362 
6.361587 0.013462 6.448724 
4.228270 4.203463 0.021956 
PRIMCOORD
36 1
Li	      4.24432      8.41662      8.49886        -0.034216      0.011761     -0.106771
Li	      4.23034      0.01451      4.28491         0.000585      0.008382     -0.001248
Li	      4.20191      6.28546      2.26945         0.000416     -0.018332      0.082212
Li	      2.16680      4.25390      2.19208         0.083728      0.013352      0.020548
Li	      4.16584      4.29051      4.28816        -0.005902      0.012772     -0.020893
Li	      6.40830      4.21856      6.47894         0.025512     -0.006420      0.013518
Li	      2.25071      6.20498      4.26234         0.015623     -0.017017     -0.060731
Li	      2.11833      4.24340      6.35708        -0.001737      0.014943     -0.058276
Li	      4.18942      6.33335      6.41072        -0.025677     -0.025639     -0.022368
Sc	      6.36106      6.32614      4.35682        -0.037558      0.039632     -0.005107
Ti	      6.24195      4.23937      2.11869        -0.461882      0.255948     -0.106126
Ti	      6.35182      2.09915      4.35409        -0.142648      0.000132      0.170558
Ti	      4.34307      4.23662      8.49262         0.242223     -0.073213     -0.283566
Fe	      6.38602      6.30080     12.83927        -0.018435      0.041772      0.091621
Fe	      8.48888      2.18442      6.45882        -0.057057      0.018912      0.113390
Fe	      8.47185      6.26889      6.52275         0.016680      0.010714      0.001319
Fe	      4.29639      8.36512      4.40410        -0.009244      0.004787     -0.090060
Fe	      6.29983      6.32317      8.52272         0.038335     -0.003793     -0.011456
O	      2.19464      1.95073      2.23544        -0.074685     -0.210694      0.025883
O	      4.37678      4.18317      2.17352         0.446140      0.035234      0.068063
O	      4.34518      2.11661      4.41658         0.162416      0.001463     -0.031504
O	      6.36671      4.12914      4.19892         0.022084     -0.145519     -0.058433
O	      6.31074      2.17598      6.30875         0.015177      0.035388     -0.234005
O	      8.52308      4.24844      6.51492        -0.088220      0.086568     -0.004342
O	      2.04761      4.18187      4.26748         0.047869     -0.017997      0.047733
O	      4.30041      6.37910      4.35001        -0.006033     -0.034426     -0.007786
O	      4.25359      4.14563      6.61374         0.020014      0.019152      0.328007
O	      6.47645      6.27966      6.45953        -0.011074     -0.004302     -0.090712
O	      6.23498      4.20209      8.73699        -0.308452     -0.033635     -0.019906
O	      8.48120      6.42713      8.52483         0.038738      0.140353      0.090071
O	      2.08588      6.36161      6.58518         0.128879     -0.037932      0.178605
O	      4.24868      8.40624      6.36466         0.112524     -0.129728     -0.039964
O	      4.15212      6.18534      8.54896        -0.070330     -0.133162      0.045959
O	      6.43967      8.50117      8.73888         0.016493      0.050046      0.091648
O	      6.34517      6.42247     10.64557        -0.015834      0.081764     -0.030321
O	      8.39514      8.41154     10.67327        -0.064454      0.008730     -0.085559
