# total energy = -231.48225428 eV
 
CRYSTAL
PRIMVEC
-0.026889 6.351614 6.256815 
6.262695 -0.012147 6.241791 
4.168749 4.217995 -0.001651 
PRIMCOORD
36 1
Li	      0.20947      6.26592      6.07329        -0.126603      0.023971     -0.012023
Li	      2.09976      8.27288      6.10151         0.040031      0.030896     -0.055620
Li	      2.06067      6.35047      8.17893        -0.018992     -0.004374     -0.176733
Li	      8.30117      4.14104      4.23228         0.061095      0.033968      0.051423
Li	      6.32216      2.13155      4.23316        -0.037664     -0.053335     -0.005960
Li	      6.20625      6.33081      4.21977         0.063840      0.045017      0.014173
Li	      0.07456      4.32307      4.33447        -0.044752     -0.042604     -0.027691
Li	      1.98746      6.25483      4.32708         0.074368      0.046700     -0.140547
Li	      1.97403      4.44366      6.09092         0.122843     -0.084270      0.051961
Sc	      4.13288      8.49332      8.24824        -0.043377      0.076921      0.032165
Ti	      4.29671      6.27793      2.19050         0.248030     -0.201858      0.195532
Ti	      4.17724      2.05124      6.12383        -0.031707     -0.253015     -0.387920
Ti	      8.20921      8.50866      8.49290        -0.334338      0.078753      0.651442
Mn	      6.26881      6.29006      8.44531        -0.013501      0.128892     -0.027576
Co	      6.22122      4.20960      6.25280         0.225020     -0.335095     -0.805594
Cu	      2.08168      4.21621      2.16904         0.078165     -0.101140     -0.105862
Ni	      4.18170      4.24909      4.18967        -0.202094     -0.117183      0.142127
Ni	      4.04816      6.38862      6.15658         0.226066     -0.071564     -0.057516
O	      2.00118      2.08438      2.06766        -0.258587     -0.178324      0.057444
O	      4.18330      4.31366      2.06947         0.157036      0.136837      0.007447
O	      4.15352      2.10984      4.25265         0.027977     -0.045564      0.364083
O	      6.19568      4.23728      4.36674         0.270272      0.028280      0.300735
O	      6.12408      2.20357      6.33276        -0.026387     -0.281327      0.169898
O	      8.19570      4.36650      6.37895         1.251064      0.565746      0.097893
O	      2.16333      4.20562      4.06059        -0.115187      0.002819      0.060708
O	      4.16286      6.35100      4.04199         0.074825      0.000985     -0.377327
O	      4.25441      4.16887      6.27706        -1.435642     -0.275871      0.373289
O	      6.30344      6.17952      6.39832        -0.079257      0.529363      0.093510
O	      6.13073      4.11303      8.24378        -0.110946     -0.025976     -0.014598
O	      8.36062      6.48662      8.23064        -0.040838      0.235900      0.067077
O	      2.10158      6.34711      6.22426        -0.153793     -0.018615     -0.031594
O	      4.15070      8.42721      6.30518         0.051766      0.127531     -0.049207
O	      4.19809      6.27780      8.28751         0.034254     -0.118438      0.176726
O	      6.29402      8.43598      8.32880         0.148196      0.087932      0.103860
O	      6.23999      6.32089     10.26736        -0.019436      0.006681     -0.000564
O	      8.31630      8.48555     10.28347        -0.061749      0.021363     -0.735159
