# total energy = -231.97655844 eV
 
CRYSTAL
PRIMVEC
-0.001695 6.120197 6.388985 
6.423603 -0.032613 6.420947 
4.260308 4.079346 0.000236 
PRIMCOORD
36 1
Li	      2.14547      1.99498      0.19447         0.025003     -0.013919      0.078340
Li	      2.04003      0.18435      2.00919        -0.062080     -0.056545     -0.050193
Li	      3.97937      2.00640      2.11733         0.027794     -0.014208     -0.018907
Li	      4.47248      6.03633      2.29957        -0.044139     -0.015202     -0.011043
Li	      2.16251      3.99670      2.20031         0.024319      0.020314      0.001131
Li	      8.54497      6.10657      6.44229        -0.004720      0.029464     -0.001835
Li	      4.27633      8.07604      4.33169        -0.014433      0.036902      0.011793
Li	      2.22794      6.06087      4.27110         0.031669     -0.024357      0.015978
Li	      4.24399      6.16766      6.27367        -0.021451      0.002581      0.016478
Sc	      6.31170      8.11503     10.56733        -0.069728      0.010460     -0.044959
Ti	      4.26036     10.07024      6.47128         0.001099     -0.211964      0.475532
Ti	      6.51733      4.01951      6.40622         0.017215      0.002611     -0.009671
Ti	      4.43458      3.97971      8.58189         0.028108     -0.122263     -0.072287
Mn	      6.42603      8.11950      6.40467        -0.023385     -0.045747      0.057804
Co	      6.45523      6.09663      8.56524        -0.047857      0.032953     -0.100211
Cu	      4.26583      6.14528     10.59514         0.021032      0.030363      0.174733
Cu	      4.18555      4.12969      4.22493         0.024542     -0.122938     -0.013225
Ni	      2.06598      2.05657      4.12667         0.102232      0.005303      0.046821
O	      2.10255      2.04228      2.15929        -0.030484     -0.014949     -0.191952
O	      4.18096      4.11221      1.87635         0.034538     -0.031415     -0.599679
O	      4.24519      2.05458      4.21876         0.059346      0.125950      0.025172
O	      6.21277      4.09711      4.45572         0.044887      0.011072      0.057752
O	      6.43912      2.08982      6.30211        -0.017218      0.033732     -0.040055
O	      8.46413      4.08284      6.29275        -0.022138      0.003104      0.093021
O	      2.24288      4.02306      4.48321        -0.166804      0.079645     -0.058518
O	      4.29163      6.06492      4.28043        -0.119624      0.133052      0.059920
O	      4.48713      4.09770      6.62153         0.110671     -0.023705      0.366731
O	      6.45921      6.12507      6.58296         0.037790     -0.085229      0.050478
O	      6.40481      4.13236      8.45379        -0.091697      0.025465      0.004083
O	      8.41192      6.18653      8.57128         0.024333      0.129431      0.013470
O	      1.96283      5.97399      6.40397        -0.103162      0.114038     -0.007809
O	      4.18934      8.23379      6.36974        -0.018941      0.268836     -0.060974
O	      4.49557      6.05498      8.61206         0.164276      0.008858     -0.142679
O	      6.56920      8.07485      8.44180         0.042810     -0.038172      0.072871
O	      6.50272      6.09656     10.62068         0.005850     -0.049539     -0.023997
O	      8.46158      8.23756     10.49088         0.030348     -0.233981     -0.174114
