# total energy = -93.08982191 eV
 
CRYSTAL
PRIMVEC
2.058228 4.208456 2.031484 
4.045347 -2.073773 -2.020069 
0.005517 4.229631 -4.109931 
PRIMCOORD
16 1
Li	      2.03019      2.19608     -0.08727         0.010432     -0.021023      0.023361
Li	      4.04256      4.25182     -0.04922         0.076042     -0.026740      0.007774
Li	      4.02598      2.14810     -1.99179         0.024338      0.002574      0.011722
Li	      2.08925      4.10792     -1.98122        -0.033724      0.068049      0.024559
Mn	      2.06187      4.20206      1.97124        -0.181996      0.210324      0.427594
Mn	      2.00933      2.11401     -4.04227        -0.057312     -0.264044     -0.338390
Ni	      0.01928      2.07254     -1.99980        -0.235682      0.045558      0.059380
Ni	      4.02612      4.23711     -4.08584         0.069897      0.061540     -0.187844
O	      4.06338      4.40199     -2.08464         0.003299      0.097539      0.221451
O	      3.93543      2.15893     -4.14954         0.147938     -0.128163     -0.173599
O	      4.15063      2.05486      0.09005         0.106177      0.097785      0.098136
O	      4.07090     -0.18101     -1.99500         0.066613     -0.300438     -0.041134
O	      1.99229      4.21686      0.11755         0.031490     -0.100795     -0.042919
O	      2.03908      2.11702     -2.17101         0.159245     -0.042195      0.134153
O	      2.12843      6.43040     -2.05053         0.004271      0.182480     -0.150704
O	      1.94085      4.06119     -4.07922        -0.191028      0.117551     -0.073539
