# total energy = -232.47904690 eV
 
CRYSTAL
PRIMVEC
0.022474 6.287588 6.441733 
6.253075 -0.007050 6.471456 
4.149790 4.192598 0.014396 
PRIMCOORD
36 1
Li	      6.20924      6.30493     12.81790         0.006328     -0.010322     -0.110725
Li	      4.16772      2.05255      2.24220         0.014559     -0.027760      0.036462
Li	      4.27062      6.35100     10.71752         0.000898     -0.011525     -0.062059
Li	      6.17217      2.03288      4.32100         0.056336     -0.029119     -0.013970
Li	      6.24027      2.10703      8.57520        -0.058035     -0.003370     -0.001376
Li	      6.26133      6.26884      4.37317         0.024436      0.001219      0.037492
Li	      6.22488      4.22668      6.48118         0.006591     -0.000533     -0.001578
Li	      8.35764      8.36470      8.63679         0.040486     -0.055276      0.089866
Li	      6.23094      6.32669      8.58563         0.056715      0.028768      0.029786
Sc	      8.17258      2.04070      6.45509        -0.047084     -0.237581     -0.051330
Ti	      6.36887     10.35896      8.63363         0.203728     -0.130238     -0.157902
Ti	      8.32528      4.20800      8.55416        -0.091283      0.475659     -0.052373
Ti	      4.22849      4.07448      4.34145        -0.026033      0.018712      0.094141
Mn	      6.27296      4.18829     10.73425         0.026942     -0.040289      0.031369
Co	      8.29273      6.29468     10.68304         0.245631     -0.099918      0.253236
Cu	      4.22708      2.10452      6.48134        -0.044718      0.077341      0.003328
Cu	      6.24766      8.35545      6.56335         0.095630      0.115502      0.138558
Cu	      4.28101      6.32213      6.43237         0.017579     -0.078384      0.092630
O	      6.43780      6.42963      6.51763        -0.159170     -0.119734     -0.068709
O	      2.10665      2.10569      2.06697        -0.007180     -0.000966      0.012814
O	      4.10519      4.19759      2.36566        -0.034964     -0.042718      0.079274
O	      4.17190      2.24417      4.37273        -0.052307      0.036312     -0.012716
O	      6.11496      4.25397      4.17557        -0.080539      0.042509     -0.002532
O	      6.18859      2.09084      6.40575         0.291754      0.024387     -0.076624
O	      8.30230      4.08616      6.66130         0.018588      0.022156      0.040590
O	      2.06258      4.16734      4.14529        -0.059287      0.253494     -0.056216
O	      4.11055      6.35467      4.37717        -0.532387      0.034220     -0.160405
O	      4.17413      4.39368      6.28947         0.091378     -0.105953     -0.122288
O	      6.38340      4.14933      8.80040         0.041075     -0.005410     -0.065081
O	      8.37419      6.14492      8.60900        -0.050470     -0.378701     -0.202867
O	      1.91962      6.21563      6.62316        -0.082907      0.077358      0.251213
O	      4.18707      8.28944      6.23956        -0.070039      0.213320     -0.172622
O	      4.06482      6.31483      8.55947        -0.100746     -0.015020      0.108554
O	      6.26332      8.52180      8.71913        -0.002011      0.133494      0.151785
O	      6.29938      6.08114     10.76584         0.395037      0.175003     -0.051065
O	      8.52251      8.37569     10.78033        -0.134528     -0.336637     -0.008663
