# total energy = -233.23302018 eV
 
CRYSTAL
PRIMVEC
0.009684 6.191666 6.291870 
6.326801 -0.016197 6.318757 
4.210507 4.137889 -0.003645 
PRIMCOORD
36 1
Li	      6.25758      4.20052      2.11911        -0.006123     -0.031004     -0.019828
Li	      6.27477      2.07370      4.26747        -0.011478      0.043606      0.001161
Li	      4.32818      6.14811      2.18887         0.044578     -0.047738      0.023962
Li	      2.10227      4.13118      2.15097         0.014602      0.020120      0.001491
Li	      1.99655      2.08524      4.09651        -0.001261     -0.006678     -0.064590
Li	      4.25110      2.06316      6.28814         0.017351      0.011557     -0.002339
Li	      4.24690      8.18720      4.21824        -0.011874     -0.002806      0.012843
Li	      2.22559      6.14001      4.16746         0.028319     -0.026923      0.030551
Li	      4.20937      6.19825      6.18855        -0.018259     -0.006925     -0.048615
Sc	      4.10173      2.04294      2.11354         0.029463      0.072208      0.058706
Ti	      6.41027      6.28884     12.55221         0.109617      0.129377     -0.032137
Ti	      6.34852      4.22392      6.27507        -0.008546      0.212590     -0.065017
Ti	      8.47260      8.13704      8.54072         0.011758     -0.179442      0.271596
Mn	      2.18128      4.08617      6.23660         0.066289     -0.026647     -0.000103
Co	      4.20674      4.16756      4.19174         0.047222     -0.084920     -0.198731
Ni	      2.12598      8.24674      6.28054         0.019290     -0.033487     -0.113690
Ni	      4.18146      0.03874      4.21557        -0.096699      0.091400     -0.056236
Ni	      6.34219      6.16314      8.49881        -0.080187      0.019703      0.099088
O	      2.13502      2.04920      2.03249        -0.002919      0.004499      0.071101
O	      4.16931      4.12500      1.92109         0.063627     -0.010710     -0.242419
O	      4.25369      2.22014      4.15394        -0.026487     -0.157943      0.064305
O	      6.25837      4.13080      4.35698        -0.116966     -0.001063      0.113407
O	      6.35712      2.04098      6.30809        -0.091411     -0.139336     -0.031616
O	      8.34256      4.11522      6.26462        -0.042266      0.127068      0.138749
O	      2.25022      4.10371      4.35171         0.004514     -0.088528      0.078993
O	      4.21957      5.98350      4.21096        -0.013278      0.220691      0.023663
O	      4.34308      4.11453      6.41599         0.036804     -0.019390      0.183192
O	      6.35033      6.11807      6.36535         0.027832     -0.224644     -0.016508
O	      6.23155      4.10952      8.33670        -0.172680     -0.143782     -0.062604
O	      8.36701      6.28834      8.46577         0.174044      0.339995      0.008114
O	      1.98284      6.17191      6.24851        -0.223843     -0.115045     -0.017774
O	      4.22318      8.33878      6.25807         0.119366      0.130216     -0.028400
O	      4.26248      6.12889      8.46342        -0.122149     -0.050109     -0.083338
O	      6.41348      8.24522      8.20986         0.113716      0.088585     -0.001621
O	      6.23136      6.21379     10.61851         0.121948      0.013259      0.260902
O	      8.42308      8.29217     10.42593        -0.003913     -0.127754     -0.356258
