# total energy = -235.72397463 eV
 
CRYSTAL
PRIMVEC
0.016439 6.257240 6.516165 
6.341247 0.035132 6.497541 
4.237594 4.169401 0.013137 
PRIMCOORD
36 1
Li	      6.44875     10.40236      8.81416         0.106322     -0.001980      0.023244
Li	      8.33959      4.20650      4.29895         0.022774     -0.007389     -0.122932
Li	      6.48756      6.13443      4.42205         0.012038     -0.012359     -0.049195
Li	      4.34531      4.12315      4.42730        -0.003429      0.010012     -0.035469
Li	      4.19483      2.09443      6.35699        -0.003004     -0.035073      0.001445
Li	      6.32845      4.29829      6.43543         0.020841      0.001712     -0.010455
Li	      6.34438      4.24910     10.77239        -0.006787     -0.002290     -0.034434
Li	      4.28721      4.32446      8.64873         0.055211      0.090890      0.078751
Li	      6.33670      6.17860      8.62505        -0.117853      0.022600     -0.047587
Sc	      0.06608      2.16093      2.22061        -0.098554     -0.086032      0.091108
Ti	     10.39528      4.18367      6.49364        -0.178431      0.043901      0.133824
Ti	      2.15384      6.23055      4.33996         0.067009     -0.097484     -0.151109
Ti	      6.52076      8.23776      6.59380         0.039213     -0.169595     -0.105739
Mn	      6.32027      2.19197      4.29756        -0.072118     -0.026386     -0.085074
Co	      4.27122      8.21964      8.75114        -0.016683      1.430635     -0.389435
Co	      8.44335      2.10762      6.50166        -0.003560     -0.000121     -0.017600
Cu	      8.41840      4.21264      8.71154         0.118141     -0.019381      0.020316
Ni	      4.27563      6.27625      6.50226        -0.016084      0.026536      0.225598
O	      2.14791      2.16197      2.12560         0.679029     -0.306927      0.160397
O	      4.13385      4.11750      2.00461         0.142177     -0.295730      0.099092
O	      4.35787      2.11824      4.20394        -0.027557     -0.266554     -0.724825
O	      6.33725      4.06821      4.33518        -0.002547      0.027822      0.058948
O	      6.29327      1.96042      6.60493         0.102044     -0.008752      0.038605
O	      8.56978      4.17147      6.36611         0.183551      0.042771     -0.113329
O	      2.07940      4.32694      4.59700        -0.039210      0.052520      0.237784
O	      4.09713      6.28596      4.36984        -0.102522      0.013294     -0.096473
O	      4.12360      4.21481      6.55903        -0.113984     -0.147248      0.056870
O	      6.35200      6.38088      6.47148         0.149784      0.182237     -0.053769
O	      6.44489      4.19090      8.68969        -0.154290      0.041329      0.013536
O	      8.50974      6.23045      8.91749        -0.011127      0.058682      0.118383
O	      2.08368      6.23483      6.44270        -0.104410     -0.006584     -0.056222
O	      4.30171      8.41781      6.54485        -0.099471     -0.064938      0.528516
O	      4.24057      6.40107      8.57301         0.111207     -0.130043      0.091615
O	      6.30630      8.38303      8.53040        -0.710076     -0.269867      0.073996
O	      6.45530      6.39999     11.00361         0.027693     -0.058990      0.063486
O	      8.34677      8.27769     10.91845         0.044662     -0.031218     -0.021867
