# total energy = -233.68456847 eV
 
CRYSTAL
PRIMVEC
-0.037795 6.406636 6.509951 
6.216541 -0.034435 6.506011 
4.127541 4.251646 -0.005518 
PRIMCOORD
36 1
Li	      4.15390      2.06030      2.38933         0.029789     -0.084538      0.025919
Li	      4.12180      0.14706      4.29114         0.032983     -0.084865     -0.044590
Li	      6.01086      2.11987      4.39571         0.084312     -0.046583      0.076425
Li	      4.19508      4.00486      4.40748        -0.060902      0.018478      0.164029
Li	      4.07903      2.17019      6.32793        -0.007915      0.154949      0.059157
Li	      6.13141      4.35818      6.37301        -0.018537     -0.016552     -0.046052
Li	      4.19314      6.31512      6.58761        -0.083745     -0.067978      0.038993
Li	      4.08001      4.33623      8.56370        -0.048172      0.043521     -0.185332
Li	      6.06379      6.43808      8.55374        -0.045004      0.076823     -0.044020
Sc	      6.25207      2.09214      8.60573        -0.105428      0.114960      0.042398
Ti	      6.31722      4.12108      2.40891         0.490980     -0.508729      0.089167
Ti	      6.13031      4.29543     10.74735        -0.004307      0.020417     -0.190909
Ti	      8.20833      6.42771     10.73212        -0.028536     -0.005074     -0.422129
Mn	     10.31367      4.20642      6.51368         0.210663     -0.148381      0.021022
Co	      6.34136      8.40346      6.57054        -0.834308     -0.015477     -0.083618
Co	      2.12385      4.21312      2.19807        -0.084954      0.111154     -0.027816
Cu	      2.03378      8.53310      6.50995         0.032006     -0.153010     -0.005910
Cu	      6.31208      6.29874      4.46066        -0.221142      0.006325      0.052769
O	      2.07185      2.02162      2.36330         0.139270     -0.043216      0.180022
O	      4.21804      4.30886      2.21426        -0.299168     -0.057435     -0.000935
O	      4.09212      2.07163      4.39491        -0.043553     -0.088460     -0.030829
O	      6.23084      4.07154      4.23518         0.012834     -0.090037     -0.171782
O	      6.22831      1.94570      6.54906        -0.007400     -0.066926     -0.020679
O	      8.38463      4.04498      6.64875        -0.086130      0.132867      0.475545
O	      1.95679      4.48057      4.33779        -0.021411      0.120317     -0.372075
O	      4.02383      6.58231      4.30952         0.015958      0.148754     -0.030942
O	      4.00074      4.28920      6.48066         0.493093     -0.171414      0.019991
O	      6.16201      6.45909      6.42352         0.241868      0.088715     -0.327439
O	      6.23293      4.20897      8.82038         0.446384      0.010941      0.082451
O	      8.28348      6.35667      8.84751        -0.000180     -0.033997      0.373794
O	      1.91911      6.49097      6.39907         0.017317      0.110393     -0.102383
O	      4.16319      8.67435      6.29594        -0.018277      0.012360      0.031999
O	      3.97708      6.38630      8.64480        -0.427448      0.070134      0.145801
O	      6.13445      8.64443      8.54030         0.005953      0.470191      0.218378
O	      6.25030      6.29231     10.77119         0.031505     -0.000646      0.031230
O	      8.35013      8.38514     10.76409         0.161599     -0.027982     -0.021649
