# total energy = -230.42907457 eV
 
CRYSTAL
PRIMVEC
0.008895 6.418433 6.363486 
6.214132 0.021515 6.351681 
4.158455 4.286664 -0.001275 
PRIMCOORD
36 1
Li	      8.19262      4.43813      4.28018        -0.000551      0.042974      0.033204
Li	      0.07456      2.16655      2.13519         0.018538      0.038520      0.053140
Li	      2.06487      4.21756      2.15410        -0.056293     -0.004414      0.021464
Li	      6.23700      6.34275      4.19785        -0.080780     -0.023490     -0.022054
Li	      4.24365      4.22573      4.20507         0.010874      0.009837     -0.011375
Li	      4.14286      2.16180      6.19715        -0.038415      0.027275     -0.009767
Li	      6.23175      4.27046      6.32307        -0.011204     -0.000277      0.026831
Li	      4.16910      8.51634      4.24346        -0.009598     -0.013700     -0.034542
Li	      4.17022      6.40708      6.31513         0.037656     -0.043013     -0.049437
Sc	      6.14468      6.38757      8.54860         0.042902     -0.097575     -0.021377
Ti	     10.24725      4.39040      6.37963        -0.403830      0.034987     -0.010259
Ti	      2.26373      6.41222      4.21695         0.725814      0.000785     -0.216825
Ti	      2.11390      4.16675      6.23479         0.102998     -0.354177     -0.211214
Mn	      4.14092      4.29692      8.43939         0.052391     -0.046033      0.071831
Cu	      2.09585      0.11113      2.18477        -0.012211      0.033184      0.170408
Cu	      6.14990      2.27484      4.33810         0.104149     -0.011234      0.209502
Ni	      2.11866      8.54819      6.40166         0.041210      0.078677     -0.111039
Ni	      4.12074      2.20768      2.18932         0.159089     -0.047156      0.091009
O	      6.22253      4.20708      4.17719         0.066291      0.115743      0.046377
O	      2.12477      2.08546      2.07266        -0.181944      0.092994      0.064492
O	      4.28681      4.24556      1.97174        -0.109995      0.188389     -0.123959
O	      4.24269      2.19624      4.19538        -0.267503     -0.040252      0.092043
O	      6.26147      1.99210      6.42584        -0.116733     -0.121804     -0.055703
O	      8.39687      4.22842      6.38015         0.346744      0.139807      0.024200
O	      2.09449      4.40785      4.34229         0.019992      0.092592      0.219699
O	      4.08424      6.46679      4.25403        -0.703436     -0.016738     -0.052992
O	      4.03870      4.28959      6.45297        -0.156483      0.013505      0.049597
O	      6.21012      6.59300      6.39104         0.020298      0.278130     -0.021889
O	      6.04489      4.36100      8.45123         0.019946     -0.013226      0.028085
O	      8.22708      6.38481      8.65391         0.010103     -0.012268      0.141111
O	      2.04641      6.37857      6.23707        -0.051648     -0.071094     -0.066134
O	      4.26084      8.68897      6.39210         0.105950      0.056874     -0.118858
O	      4.08893      6.49446      8.49552         0.061966     -0.054492     -0.036456
O	      6.32277      8.58681      8.30484         0.030207     -0.038548     -0.146910
O	      6.25989      6.46001     10.67248         0.073893     -0.075518      0.053371
O	      8.20564      8.44695     10.56551         0.149614     -0.159263     -0.075573
