# total energy = -229.09526547 eV
 
CRYSTAL
PRIMVEC
-0.052352 6.388913 6.400850 
6.346616 0.011329 6.337323 
4.222363 4.208975 0.016418 
PRIMCOORD
36 1
Li	      4.19238      2.14982      2.11149        -0.005683      0.038249      0.009969
Li	     10.42836      6.50732      8.56036         0.037904     -0.006844     -0.025247
Li	      2.03470      4.31198      2.28947        -0.041277     -0.035361      0.039709
Li	      6.22001      6.49797      4.38828        -0.040060      0.010688     -0.043811
Li	      6.21442      4.27998      6.46601         0.004342     -0.028139      0.016701
Li	      0.06969      4.09567      4.18426         0.026610      0.045583     -0.069079
Li	      2.22658      6.25521      4.17913        -0.039469     -0.009504     -0.046913
Li	      2.07394      4.19381      6.18261        -0.077979      0.060124     -0.015579
Li	      4.32347      4.13593      8.44039         0.039442      0.025255      0.000762
Sc	      6.37312      6.24468      8.37576        -0.104217     -0.084597      0.200831
Ti	      2.19773      2.17180      0.06936         0.094040      0.259012      0.113856
Ti	      6.23907      4.21543      2.11287        -0.162126      0.101173     -0.043549
Ti	      6.33544      8.47019     10.63594         0.145201     -0.240943      0.011363
Mn	      4.17661      6.42353     10.55409         0.054841     -0.036928      0.062645
Cu	      4.23029      4.19068      0.04284         0.123270      0.087097      0.154184
Cu	      4.06651      4.30372      4.34139         0.071316     -0.088368     -0.419562
Cu	      4.19533      2.22421      6.39520        -0.109396     -0.224200      0.148123
Cu	      4.20333      6.33200      6.32465        -0.240852      0.000951      0.219133
O	      4.16473      4.17433      6.27719         0.022606      0.298318      0.327455
O	      2.13470      1.98996      1.97573        -0.005214     -0.105000     -0.162045
O	      4.39236      4.20918      2.29963         0.144258      0.063372     -0.019021
O	      4.40847      2.22292      4.39569         0.060736      0.014205     -0.030906
O	      6.52398      4.13718      4.15192        -0.279474     -0.009272     -0.100425
O	      6.51700      2.01135      6.24273         0.045505      0.260215     -0.031625
O	      8.48981      4.12954      6.21309        -0.207374     -0.158243      0.078286
O	      2.13880      4.26891      4.23453        -0.166046     -0.033928     -0.017881
O	      4.19428      6.24122      4.36810        -0.006453      0.115016     -0.124292
O	      6.13242      6.37055      6.37412         0.353887     -0.005799     -0.179302
O	      6.31472      4.28927      8.50050        -0.054125     -0.012484     -0.012277
O	      8.39498      6.36910      8.36305         0.050512     -0.047383     -0.017249
O	      2.09822      6.45116      6.54786         0.212594     -0.010087      0.008303
O	      4.05117      8.62574      6.37766        -0.014588     -0.465187     -0.035190
O	      4.10168      6.42775      8.58124         0.003286     -0.003580     -0.069153
O	      6.28517      8.59629      8.68017         0.026408      0.093635      0.068498
O	      6.12165      6.52986     10.50540         0.191396      0.163912     -0.098489
O	      8.28211      8.40159     10.75620        -0.153821     -0.030957      0.101781
