# total energy = -230.11438879 eV
 
CRYSTAL
PRIMVEC
-0.002369 6.365008 6.147236 
6.332136 0.017239 6.127315 
4.222664 4.231587 0.010614 
PRIMCOORD
36 1
Li	      4.19180     10.44900      6.05390        -0.007048     -0.002839      0.050327
Li	      8.51011      8.55551     12.22986        -0.008174     -0.018469     -0.001076
Li	      4.17110      2.09029      2.11873        -0.023995     -0.034460     -0.056867
Li	      8.44324      4.29646      4.16856         0.016337      0.017785     -0.004609
Li	      2.31677      2.02975      4.12068        -0.026484     -0.027755     -0.010641
Li	      4.26122      4.10405      4.13260         0.017178     -0.004399     -0.023230
Li	      8.33638      6.30819      6.05401         0.009197     -0.005632     -0.009119
Li	      6.26784      4.45814     10.26611        -0.019923     -0.043933      0.046272
Li	      8.31456      6.38572     10.27826         0.022841      0.026965      0.052913
Sc	      6.24010      2.09204      4.17211        -0.009230     -0.015787      0.115245
Ti	      4.21840      6.33100      2.04882         0.077051     -0.133897     -0.099606
Ti	      2.18459      4.18794      2.11755         0.147444     -0.168763      0.061249
Ti	      4.19091      6.46323      5.94983        -0.085722      0.262552     -0.151996
Mn	      4.22932      4.28416      8.21366        -0.035701     -0.020941      0.033724
Ni	      2.14356      0.04672      2.07296        -0.092302      0.031837     -0.013562
Ni	      6.35641      4.30659      6.06037        -0.015504     -0.049556     -0.057982
Ni	      2.12314      4.24420      6.02800        -0.038648      0.028149     -0.078664
Ni	      6.31336      6.37707      8.23953         0.051977     -0.002865      0.008465
O	      1.97540      2.22526      2.08053        -0.039982      0.189558      0.011306
O	      4.12815      4.38028      2.03463        -0.201128      0.096194      0.018660
O	      4.26487      2.11389      4.04874        -0.020965      0.036173     -0.016765
O	      6.31895      4.20788      4.05792         0.009721     -0.018028      0.008954
O	      6.36266      2.19215      6.26688         0.015431     -0.084401      0.168528
O	      8.37221      4.26682      6.34288         0.104780      0.038170      0.122103
O	      2.09323      4.26730      3.97842        -0.025542      0.045326     -0.259653
O	      4.19834      6.35430      4.08016         0.017392     -0.012759      0.104482
O	      4.24329      4.34546      6.24001        -0.016029     -0.003021      0.026889
O	      6.20860      6.37383      6.20613        -0.039021      0.000927     -0.172187
O	      6.26599      4.19044      8.18054         0.030447     -0.017609      0.108523
O	      8.54263      6.41485      8.18019         0.030984      0.031973      0.010594
O	      2.26378      6.33577      6.20636         0.097164      0.063440     -0.171494
O	      4.26395      8.33324      6.20406        -0.101338     -0.162583     -0.000709
O	      4.22885      6.18645      8.11498         0.061539     -0.067610      0.023536
O	      6.53409      8.47936      8.14064         0.079164     -0.002658      0.036165
O	      6.33115      6.40379     10.22038         0.002062      0.012864      0.144701
O	      8.42585      8.48708     10.07141         0.016029      0.016052     -0.024479
