# total energy = -217.41454576 eV
 
CRYSTAL
PRIMVEC
-0.015473 6.211050 6.192182 
6.494920 -0.030183 6.206863 
4.302299 4.122655 0.007673 
PRIMCOORD
36 1
Li	      8.54477      2.09201      6.32622        -0.035464     -0.077548     -0.059701
Li	      4.12494      2.07795      2.01302        -0.089072      0.015685      0.004091
Li	      6.53638      2.13754      8.17410         0.003557     -0.048383     -0.007683
Li	      2.08812      3.99647      1.99987        -0.042481     -0.038605      0.018957
Li	      2.03185      2.11560      4.04897        -0.086875     -0.010470      0.025735
Li	      8.81131      6.05191      6.26978         0.049770      0.058826      0.029004
Li	      6.56020      4.00459      6.28234        -0.070303      0.057667     -0.025752
Li	      4.39324      8.12411      4.11028         0.060787      0.000162      0.010531
Li	      2.19827      6.23327      4.10885         0.054154      0.030070      0.009409
Sc	      4.27619      4.08307      4.04205        -0.098355      0.003336      0.006727
Sc	      6.60775      6.11482      8.32621         0.002465     -0.038878     -0.070394
Mn	      8.58766      4.14179      4.23355        -0.081906      0.061162     -0.132176
Mn	      4.29715      6.23104      6.19783        -0.049874      0.070622     -0.084434
Fe	      2.08194      4.15786      6.11043         0.091053     -0.009685      0.087619
Co	      6.49256      2.05546      4.14942         0.061177      0.030486      0.033158
Cu	      6.41784      0.04985      6.21248        -0.173756     -0.234215      0.139812
Cu	      2.14160      0.06770      2.06301        -0.133355      0.138160      0.003404
Cu	      8.68293      8.20103      8.31103        -0.042717     -0.079373     -0.116086
O	      6.50121      1.99512      6.03767         0.012288      0.013442      0.025031
O	      8.54407      4.09883      6.11532         0.155148     -0.029123      0.008437
O	      8.42267      8.38137     10.29682        -0.078467      0.002363      0.114899
O	      2.14704      1.99356      2.11166        -0.004214      0.154471     -0.055812
O	      4.42584      4.13229      1.97609        -0.214435     -0.015427     -0.143712
O	      4.51280      1.97529      4.13637         0.092988      0.002564      0.003917
O	      6.40660      3.99696      4.05586         0.096172     -0.063911      0.233606
O	      2.22172      4.11116      4.18955         0.070007     -0.006221     -0.160202
O	      4.28286      6.16187      4.33270         0.056222     -0.046089     -0.026405
O	      4.20942      4.26161      6.21832         0.160924     -0.025871     -0.040969
O	      6.24920      6.26303      6.25370         0.099063     -0.014323      0.010485
O	      6.37504      4.11596      8.31388         0.132181     -0.056535     -0.007064
O	      8.61221      6.24067      8.26228         0.029785     -0.141835     -0.030082
O	      2.36065      6.17972      6.27408        -0.014352      0.011532     -0.035009
O	      4.40612      8.18526      6.20843        -0.005193      0.062431     -0.001349
O	      4.30868      6.14371      8.26773         0.127070      0.133555      0.096662
O	      6.59870      8.28918      8.31226        -0.118818      0.065724      0.049581
O	      6.50720      6.30723     10.39837        -0.015174      0.024232      0.085766
