# total energy = -220.50567916 eV
 
CRYSTAL
PRIMVEC
-0.020688 6.223801 6.211190 
6.408236 -0.023768 6.214605 
4.267788 4.147176 -0.011581 
PRIMCOORD
36 1
Li	      4.27759      4.13362      0.05523         0.066557     -0.131133      0.011859
Li	      2.11578      2.09011      0.06688        -0.001085      0.042248      0.010776
Li	      2.17956      6.25887      8.20123         0.188952      0.020878     -0.130328
Li	      8.46186      4.19664      4.13342        -0.184994      0.140262     -0.066528
Li	      2.22740      2.00232      4.14221         0.248388     -0.049049      0.012986
Li	      8.50281      6.16783      6.25341        -0.025402      0.006307      0.064661
Li	      4.26473      6.21043      6.27769         0.007986      0.029986      0.120116
Li	      4.25726      4.17458      8.21398        -0.013512      0.048170     -0.035480
Li	      6.38514      6.18041      8.20488        -0.089960     -0.007990     -0.039583
Sc	      6.40030      8.25099     10.38852        -0.106519     -0.035903     -0.084986
Sc	      4.30049      4.14640      4.15479         0.081914     -0.131924      0.125158
Mn	     10.63062      8.29271     10.36244         0.006463     -0.019983      0.113258
Mn	      8.52762      6.20171     10.35074        -0.047391     -0.107468      0.092043
Fe	      6.42524      8.20917      6.32482        -0.144375      0.049279     -0.135054
Co	      4.18374      8.13802      8.22406         0.025876      1.211570     -0.018014
Co	      8.53666      4.11469      8.24917         0.026308     -0.027913      0.062018
Cu	      6.44093      4.22166      6.23618        -0.091564      0.083978      0.037091
Ni	      6.42327      2.03191      8.18820        -0.039310      0.028364      0.081805
O	      8.43623      4.15766      6.36761         0.002544     -0.017433      0.030036
O	      2.14114      2.19968      2.07941         0.174594     -0.239771     -0.001695
O	      4.10383      4.09511      2.03754        -0.080121     -0.432030     -0.076128
O	      4.32431      2.10037      4.07070         0.064254     -0.076777      0.023142
O	      6.36877      4.13637      4.21057        -0.016992      0.002776     -0.037031
O	      6.38569      2.13728      6.20433         0.043181     -0.009906     -0.015829
O	      2.16087      4.25785      4.07309         0.050517      0.008673     -0.027237
O	      4.09019      6.30267      4.08355        -0.065640     -0.069700     -0.051801
O	      4.18348      4.14040      6.21529         0.056224      0.020795      0.034577
O	      6.38883      6.27346      6.18474         0.034632     -0.153141     -0.026137
O	      6.55800      4.10015      8.34302         0.087457      0.017228     -0.012278
O	      8.58935      6.07543      8.40729         0.024203     -0.081724     -0.023439
O	      2.13024      6.09707      6.04421        -0.012956      0.110989     -0.134476
O	      4.35081      8.28329      6.10912         0.011759     -0.076026      0.037041
O	      4.22007      6.34923      8.30318        -0.103389     -0.072940      0.042160
O	      6.31080      8.33696      8.24740        -0.282299     -0.160625      0.081000
O	      6.55467      6.12243     10.34942         0.163776      0.073253     -0.003673
O	      8.49990      8.11212     10.30639        -0.060078      0.006679     -0.060029
