# total energy = -93.12246549 eV
 
CRYSTAL
PRIMVEC
2.078914 4.250752 2.051901 
4.086004 -2.094615 -2.040371 
0.005572 4.272140 -4.151237 
PRIMCOORD
16 1
Li	      2.07121      2.24045     -0.08903         0.004000      0.062090     -0.034961
Li	      2.04531      0.08696     -2.10211        -0.060721      0.025371      0.001037
Li	      4.10732      2.19149     -2.03202        -0.040651      0.040784      0.000189
Li	      2.13145      4.19090     -2.02124         0.029219     -0.085629      0.007862
Mn	      0.02461      0.03620     -0.04084         0.216721     -0.195042     -0.471311
Mn	      2.04992      2.15672     -4.12392         0.031105      0.221957      0.343589
Ni	      0.01967      2.11441     -2.04020         0.217893     -0.002804      0.026203
Ni	      4.10745      4.32271     -4.16837        -0.084597     -0.112260      0.093536
O	      4.14547      4.49092     -2.12675        -0.208016      0.036279     -0.000247
O	      4.01492      2.20254     -4.23337        -0.169730      0.067696      0.107053
O	      4.23448      2.09637      0.09187        -0.050131      0.121977     -0.039933
O	      4.15314     -0.18467     -2.03531        -0.050061      0.173776      0.054120
O	      2.03254      4.30205      0.11993        -0.037130     -0.127907      0.123938
O	      2.08027      2.15978     -2.21487         0.086655      0.056869     -0.239613
O	      2.17143      6.56030     -2.09196         0.155032     -0.100372     -0.058355
O	      1.98006      4.14323     -4.16162        -0.039589     -0.182783      0.086895
