# total energy = -217.97230326 eV
 
CRYSTAL
PRIMVEC
0.009870 6.177260 6.057752 
6.595308 -0.007102 6.074621 
4.394594 4.126089 -0.002157 
PRIMCOORD
36 1
Li	      4.38110      4.12271      0.13822         0.024007      0.006404      0.021354
Li	      6.51979     10.26810      8.02305        -0.036920      0.040201     -0.004287
Li	      4.47421      8.25607      7.91457         0.019323     -0.016565      0.041385
Li	      6.49993      2.06536      8.01299         0.020679      0.046530     -0.012681
Li	      8.83076      4.13969      8.00312        -0.034230     -0.045300      0.109726
Li	      6.61167      4.09718      6.22680        -0.013225      0.005786      0.079843
Li	      4.26966      6.28844      6.24468        -0.084203     -0.036697      0.004910
Li	      4.47968      4.16867      8.01325         0.085123      0.001039      0.056492
Li	      6.62068      6.11181      8.01165        -0.007156     -0.056462     -0.006689
Sc	      6.63045      8.16982     10.00996        -0.106986      0.163139     -0.046970
Sc	      4.38574      4.22553      3.95023         0.024754     -0.094982     -0.215694
Mn	      2.25797      2.03922      3.99753        -0.000542      0.221898     -0.119524
Mn	      6.56136      4.14717     10.06943        -0.014688      0.012650     -0.270459
Fe	      2.20240      2.08349      0.14083        -0.213263     -0.129795      0.054133
Co	      8.85012      6.18027      6.17206         0.074102     -0.197259      0.196508
Co	      8.81483      6.17269     10.09360        -0.009068     -0.406953     -0.906336
Cu	      4.33851      6.17741     10.03861         0.180662     -0.212053     -0.018831
Cu	      6.62252      8.27707      6.15553         0.105299     -0.015374      0.029616
O	      6.58977      4.11712      8.23239         0.004424     -0.045388      0.013514
O	      4.43456      6.18032      8.18800        -0.028705      0.014790      0.235192
O	      2.17455      2.07288      2.05547        -0.020460      0.031703      0.088085
O	      4.35046      4.06710      2.05340        -0.005136      0.035488      0.053636
O	      4.48896      2.04459      4.22482         0.017554     -0.145541     -0.341742
O	      6.50467      4.22578      4.02313        -0.124929     -0.122485      0.068668
O	      6.55461      2.06215      6.05659         0.035172     -0.043115     -0.033822
O	      8.77230      4.12092      5.93305        -0.014031      0.188314     -0.177327
O	      2.22810      4.12116      4.16589         0.042711     -0.824383     -0.004611
O	      4.23052      6.26880      4.07981         0.283644     -0.004488      0.023552
O	      4.47270      3.89673      6.10440        -0.165365      0.122782      0.021821
O	      6.86942      6.20598      5.95033        -0.060438      0.107483      0.101599
O	      8.79734      6.10006      8.02025         0.064063      0.222284      0.022958
O	      2.20550      6.22687      5.92724         0.053999     -0.146003      0.864192
O	      4.18590      8.26146      5.94581         0.259613     -0.019401      0.090822
O	      6.56587      8.24588      8.03356         0.019228     -0.017848      0.012419
O	      6.89709      6.10872     10.08267        -0.322564     -0.029063     -0.005303
O	      8.73009      8.12236     10.18447        -0.052450      1.388666     -0.026149
