# total energy = -219.71562455 eV
 
CRYSTAL
PRIMVEC
-0.039940 6.355915 6.267216 
6.300869 -0.059091 6.286840 
4.137934 4.187463 0.023609 
PRIMCOORD
36 1
Li	      0.10354      6.33886      6.32153        -0.003598     -0.027485     -0.008842
Li	      2.05014      8.27855      6.29412         0.003795     -0.032778      0.065371
Li	      2.03270      6.37941      8.17562         0.016362      0.049168      0.026423
Li	      4.07561      6.20060      2.12615        -0.016843      0.027879     -0.010589
Li	      2.13733      4.26126      2.10556        -0.024725     -0.014169     -0.032296
Li	      2.17352      6.25486      4.33536        -0.035426     -0.060892     -0.005825
Li	      2.06059      4.44561      6.16903        -0.067575      0.005749      0.004665
Li	      3.92515      6.33566      6.25837         0.028302      0.055377      0.045614
Li	      4.17607      4.19522      8.36016        -0.008395     -0.013700     -0.029338
Sc	      4.08752      8.50296      8.23881        -0.074653     -0.039111     -0.151514
Sc	      6.29902      6.24896      8.38755         0.062475     -0.006978     -0.069025
Mn	      6.29740      8.40851     10.48042         0.068821     -0.045199     -0.003560
Mn	      6.26525      4.13518      6.32432         0.062810      0.031993      0.161638
Fe	      1.93940      2.20701      4.09696         0.161944     -0.211390      0.134464
Co	      8.32685      4.16405      4.23285         0.049277     -0.044732     -0.000221
Co	      4.20880      2.05993      6.26807        -0.017595     -0.015345      0.128054
Ni	      4.07168      8.39312      4.30921        -0.075816      0.087526     -0.141602
Ni	      4.06819      4.28821      4.15407         0.104498     -0.124182      0.042020
O	      2.03880      6.33501      6.24527        -0.038194      0.046375      0.044063
O	      2.10244      2.07050      2.22403         0.022790     -0.016895     -0.182079
O	      4.15496      4.15484      2.19406         0.052622      0.000133     -0.177104
O	      4.24679      1.97247      4.29197         0.021349     -0.018783      0.011421
O	      6.35349      4.18048      4.34134         0.001634     -0.093600      0.053231
O	      6.17206      2.18825      6.17299        -0.009804     -0.001668     -0.006946
O	      8.22146      4.28569      6.19155        -0.048346      0.044550     -0.056170
O	      2.03484      4.11725      4.22330        -0.094230      0.221246     -0.020859
O	      4.17544      6.31958      4.23897        -0.206655      0.096912      0.016942
O	      4.32535      4.02476      6.18384         0.046707     -0.042979      0.097188
O	      6.38234      6.10157      6.23829         0.004608      0.016390     -0.027496
O	      6.25639      4.17659      8.23068        -0.017531     -0.004885     -0.098411
O	      8.32445      6.27439      8.21516         0.019554     -0.014790     -0.089582
O	      4.12509      8.40771      6.27674        -0.003641      0.012362      0.215061
O	      4.19229      6.35323      8.52395        -0.002423     -0.020051      0.037508
O	      6.23374      8.36694      8.58166         0.011158      0.018891      0.044519
O	      6.09644      6.30423     10.49893         0.010314      0.105927     -0.012225
O	      8.25502      8.59361     10.52556        -0.003573      0.029133     -0.004497
