# total energy = -222.08190683 eV
 
CRYSTAL
PRIMVEC
0.040479 6.371471 6.233258 
6.188530 0.031107 6.241883 
4.152015 4.279303 -0.004898 
PRIMCOORD
36 1
Li	      8.19654      2.18697      6.32300         0.029385     -0.016218      0.066373
Li	      2.14605      6.43266      8.20420         0.000714      0.172868      0.037630
Li	      4.15808      8.48631      8.27537        -0.106658      0.028141     -0.007174
Li	      6.19587      2.06650      8.22641         0.116262     -0.082439      0.041635
Li	      8.31822      4.34608      8.15302         0.014315     -0.103346      0.051619
Li	      8.32810      6.37813      6.27561        -0.042418     -0.022105      0.003428
Li	      8.24473      6.48457     10.38604        -0.017201     -0.038641      0.025669
Li	      4.15179      6.35777      6.32882        -0.019100      0.006002      0.001401
Li	      4.12721      4.26949      8.28956         0.016896      0.022437      0.015645
Sc	      4.14439      4.28721      4.02192        -0.043831      0.087255     -0.163580
Sc	     10.26178      8.48973     10.36273         0.201112     -0.067536      0.032938
Mn	      6.24843      4.23032      6.30590        -0.054988      0.017371     -0.155276
Mn	      6.25771      8.56703      6.29789        -0.013684      0.162151     -0.332132
Fe	      6.26204      6.45935      8.29717        -0.212872     -0.134167      0.001598
Co	      4.16750      4.29132      0.07792        -0.036839     -0.032327      0.090561
Co	      6.28998      8.47264     10.42502         0.001830      0.190219      0.098212
Co	      2.10613      2.14455      3.97401        -0.012044     -0.070308      1.106594
Ni	      4.13835      0.04014      4.16489        -0.146684     -0.011854     -0.045584
O	      2.09017      2.10024      2.20616         0.028020      0.025398     -0.379777
O	      4.13746      4.31165      1.99448        -0.019312     -0.094260     -0.027177
O	      4.15457      2.17653      4.13195        -0.233229     -0.074706     -0.068137
O	      6.23658      4.35559      4.33846        -0.121934     -0.467173     -0.049352
O	      6.19874      2.01068      6.23457        -0.013106     -0.066779     -0.127301
O	      8.23706      4.26133      6.20855        -0.025462      0.001128      0.056577
O	      2.08063      4.19575      4.31405         0.026445      0.410966      0.193073
O	      4.18458      6.41281      4.13727         0.305880      0.048422     -0.147907
O	      4.14285      4.31159      6.19100         0.001509     -0.021360      0.027537
O	      6.21837      6.58341      6.24560         0.024346      0.016107     -0.282457
O	      6.23046      4.38080      8.22716        -0.072572      0.185430      0.020773
O	      8.04797      6.40323      8.34735         0.340935      0.049725     -0.015182
O	      1.98825      6.21149      6.27656         0.094610     -0.076553     -0.061087
O	      4.31022      8.68028      6.24334         0.057325     -0.001194     -0.031321
O	      4.39193      6.42159      8.35294        -0.055200      0.007406     -0.065959
O	      6.27088      8.45754      8.23746         0.020663     -0.067412      0.017075
O	      6.21644      6.36373     10.48012         0.057930      0.083230      0.002573
O	      8.27943      8.56737     10.39409        -0.091043     -0.065876      0.068489
