# total energy = -213.81606921 eV
 
CRYSTAL
PRIMVEC
0.017794 6.206464 6.413379 
6.269735 0.015382 6.415267 
4.183044 4.142406 0.006843 
PRIMCOORD
36 1
Li	      0.05309      0.09988      0.05931         0.076183     -0.036262      0.071997
Li	      8.36039      8.25019     12.78459         0.044441     -0.003174      0.033413
Li	      2.02434      0.08121      2.04401        -0.001990      0.053625      0.052062
Li	      6.40903      8.25726     10.68277        -0.023337     -0.006459     -0.075430
Li	      0.19395      2.09565      1.97888         0.025185      0.015691      0.054520
Li	      2.07994      2.07241      4.20750        -0.015212      0.076065     -0.055050
Li	      4.16460      8.27548      4.42238         0.100062     -0.041429     -0.041356
Li	      6.22227      8.35024      6.44286        -0.001266     -0.029594      0.026229
Li	      8.31292      8.23569      8.65600         0.019978     -0.026976     -0.000753
Sc	      4.11822      2.09580      2.12024        -0.076480      0.033208      0.015801
Sc	      4.21191      4.20006      4.24956        -0.110435      0.066462     -0.260321
Mn	      4.11125      6.20642      6.45383        -0.192092      0.193652      0.016601
Mn	      6.29035      6.20381      8.53654        -0.020663     -0.016241     -0.080084
Fe	      4.28970      2.06677      6.37498        -0.404800      0.200174      0.063342
Cu	      8.33375      6.29433     10.73029         0.022111      0.035533     -0.073639
Ni	      8.36637     10.25470     10.75749         0.253968     -0.376895     -0.191723
Ni	      8.36324      4.14369      8.54573        -0.019109     -0.048129      0.065109
Ni	      6.30654      4.13322      6.41474        -0.004719     -0.494933     -0.232624
O	      8.38672      8.18877     10.69595        -0.121219     -0.175898      0.053989
O	      2.10639      2.10771      2.23548        -0.013711     -0.181037     -0.065077
O	      4.21414      4.15086      2.18487         0.115806      0.001882     -0.018542
O	      4.12651      2.09135      4.34993         0.072140      0.367732      0.035863
O	      6.32182      4.14464      4.47524        -0.358705      0.222512     -0.456656
O	      6.19646      2.18474      6.42125         0.374012     -0.222769      0.113545
O	      8.40663      4.24141      6.37156        -0.111407     -0.261851     -0.098372
O	      2.11848      4.37261      4.20099        -0.054461     -0.110444      0.192616
O	      4.11850      6.25458      4.53376         0.095933      0.067824      0.065909
O	      4.18048      4.18582      6.37441         0.126586      0.016164      0.050974
O	      6.16973      6.12486      6.53597         0.047196      0.431743      0.000170
O	      6.32388      4.23711      8.33071        -0.141112      0.135563      0.689034
O	      8.19407      6.20402      8.37329        -0.011599      0.162309     -0.073753
O	      2.25918      6.18307      6.50055         0.097977      0.018123      0.133499
O	      4.19628      8.09744      6.48758         0.014220     -0.077086     -0.045001
O	      4.29911      6.15574      8.49049         0.017068     -0.044245     -0.002890
O	      6.24030      8.08475      8.56043         0.035644     -0.052826      0.001711
O	      6.30827      6.15900     10.45121         0.143809      0.107986      0.034888
