# total energy = -213.42393664 eV
 
CRYSTAL
PRIMVEC
0.039450 6.417835 6.281966 
6.295090 0.048763 6.272711 
4.226963 4.302540 0.002352 
PRIMCOORD
36 1
Li	     10.39427      4.43607      6.24195         0.046856      0.002354      0.051699
Li	      8.39240      2.27260      6.24686         0.029189     -0.068479      0.026642
Li	      8.25522      4.49489      8.26607        -0.028105     -0.015613      0.004504
Li	      8.52459      6.28498      6.43459         0.004014     -0.021292      0.004023
Li	      6.43176      4.29011      6.42885        -0.051679      0.011102     -0.001200
Li	      6.39636      4.33844     10.33132         0.059849     -0.082631     -0.018374
Li	      8.35390      6.48609     10.34182         0.031288     -0.041140      0.015108
Li	      6.32249      8.64003      6.29471         0.001724      0.033647      0.002713
Li	      6.48051      6.29691      8.34348         0.024409     -0.050704     -0.037327
Sc	      6.34577      6.49533      4.25459        -0.116129      0.064744      0.137076
Sc	      4.13538      4.39285      4.22406        -0.112768      0.186910      0.092618
Mn	      4.26249      8.60576      8.32834        -0.004800      0.133403     -0.259191
Mn	      6.38843      8.55034     10.54525        -0.129135      0.034746      0.020008
Fe	      4.23723      6.45137      6.34001         0.081481      0.095268      0.009134
Cu	      2.15687      6.42630      8.35249        -0.177285      0.079033     -0.262658
Cu	      8.56104     10.63742     10.57231         0.043929     -0.118762     -0.091436
Ni	      6.27060      2.25010      8.21725         0.092275     -0.088820      0.084823
Ni	      8.49049      8.49803      8.35853        -0.035135      0.052977     -0.123051
O	      8.42070      4.34253      6.16331        -0.000310     -0.110643      0.067113
O	      6.28072      6.67175     10.46783         0.009042      0.067121     -0.053683
O	      2.16802      2.03810      2.10903        -0.007945      0.134700      0.031516
O	      4.32670      4.25801      2.04245        -0.122701     -0.001146      0.013868
O	      4.26158      2.30187      4.03298         0.131847     -0.170853      0.107752
O	      6.32646      4.24787      4.11457         0.061257     -0.138234      0.107088
O	      6.29680      2.20041      6.12211        -0.014440     -0.015435     -0.128749
O	      2.15297      4.20815      4.18516         0.014097      0.009926     -0.007114
O	      4.28201      6.43933      4.23069        -0.002200     -0.036782     -0.111518
O	      4.20137      4.51195      6.31048         0.001155     -0.102327     -0.109231
O	      6.12744      6.44981      6.29900         0.316072     -0.007443     -0.054253
O	      6.26428      4.23130      8.38887         0.112527      0.167738      0.012001
O	      8.51252      6.49102      8.32239        -0.152808     -0.118969     -0.003108
O	      2.37143      6.43464      6.38947        -0.335789     -0.002824     -0.048264
O	      4.27437      8.41934      6.45827         0.004910      0.127991      0.115498
O	      4.18280      6.54766      8.47615         0.109137     -0.195197      0.177855
O	      6.28618      8.69836      8.49926         0.063890     -0.144257      0.085254
O	      8.23609      8.52272     10.39564         0.052280      0.329889      0.142863
