# total energy = -215.49080275 eV
 
CRYSTAL
PRIMVEC
0.060786 6.356881 6.264782 
6.372141 0.068364 6.257720 
4.272905 4.258153 0.020650 
PRIMCOORD
36 1
Li	      8.54141      8.49177     12.45634         0.011255     -0.079074      0.038933
Li	      2.18220      6.39367      8.31404         0.021018     -0.005555     -0.080004
Li	      6.57547      8.53026     10.42484         0.025772     -0.015054     -0.029526
Li	      4.26658      6.41487      2.18135        -0.012861      0.011838     -0.018708
Li	      4.30186      4.47271      4.19936        -0.036741      0.035411     -0.051771
Li	      4.18530      8.38961      4.22223         0.044333      0.018849      0.074368
Li	      2.32674      6.47945      4.19993         0.075613      0.026693     -0.012063
Li	      4.23428      6.33332      6.11394        -0.054892      0.052124     -0.044060
Li	      4.34775      4.27687      8.39601        -0.023353      0.052761      0.023694
Sc	      2.10522      4.22559      2.20580        -0.025486     -0.015199      0.253799
Sc	      4.31231      2.29396      6.23985        -0.045920      0.033885      0.010687
Mn	      4.33942      8.47986      8.37725         0.149028     -0.044114     -0.190159
Mn	      8.59796     10.59031     10.48800        -0.030695     -0.267875     -0.051736
Fe	      0.19700      6.38514      6.24567         0.143289     -0.204471      0.054842
Cu	      6.32046      6.38314      4.18477        -0.049580      0.097563     -0.197945
Cu	      6.37319      4.28318      6.26213        -0.227805      0.096883     -0.044694
Cu	      2.15292      4.28881      6.22761         0.173307      0.183954     -0.043543
Cu	      6.42083      6.40259      8.38699         0.051317      0.001160      0.046667
O	      6.41446      4.38024      8.18846        -0.136449      0.003863      0.025252
O	      2.12672      6.30724      6.21580        -0.050054     -0.011696      0.071390
O	      6.28500      8.42752      8.28639        -0.167635     -0.056791      0.382874
O	      8.54331      8.73932     10.43042         0.019719      0.135902      0.032840
O	      2.32978      2.12057      2.12613         0.080316     -0.041770     -0.210033
O	      4.24454      4.06426      2.06677         0.035763     -0.025707      0.054418
O	      4.25096      2.02500      4.09558         0.042083     -0.035759      0.036049
O	      6.55128      4.35287      4.31176         0.034849     -0.100548     -0.022595
O	      6.35820      2.07706      6.33397        -0.025096      0.014306      0.023660
O	      8.57375      4.33915      6.20893         0.066872      0.020417     -0.018985
O	      2.12249      4.15878      4.23094         0.025766      0.039748     -0.481316
O	      4.37860      6.39906      4.10640        -0.170426      0.035840     -0.039537
O	      4.19987      4.30169      6.25930         0.317211      0.036542     -0.033506
O	      6.42024      6.49623      6.15825         0.044001     -0.083601      0.410918
O	      8.44002      6.38024      8.34220         0.123205      0.040601     -0.032367
O	      4.37229      8.53584      6.46311        -0.253407     -0.005629      0.129907
O	      4.37779      6.51364      8.52681        -0.112521      0.040178      0.049630
O	      6.23639      6.37224     10.56795        -0.061794      0.014323     -0.117379
