# total energy = -214.47572957 eV
 
CRYSTAL
PRIMVEC
0.016231 6.260964 6.144920 
6.319592 0.005468 6.155631 
4.229130 4.196975 -0.012623 
PRIMCOORD
36 1
Li	      6.30905      4.15877      2.07805        -0.000924     -0.004112      0.029691
Li	      4.23436      2.20143      2.11220         0.029457      0.074338      0.028093
Li	      8.38873      4.20745      4.11488        -0.024333     -0.003712     -0.027011
Li	      6.21622      2.23578      4.08378        -0.074351      0.043578     -0.069225
Li	      2.20905      4.13329      2.01570         0.002364     -0.029564      0.005560
Li	      4.25618      4.17606      4.02251         0.019926     -0.020568     -0.050925
Li	      4.24621      8.30094      4.11706         0.037360     -0.013118     -0.029093
Li	      2.23533      6.23490      4.10578         0.019490     -0.033223     -0.031441
Li	      4.18105      6.24457      6.13154        -0.009587     -0.036686      0.066937
Sc	      2.16025      2.03612      3.98855         0.017454      0.012963     -0.061879
Sc	      6.32752      6.26254      8.37421        -0.055010     -0.033180      0.106647
Mn	     10.54731     10.45442     12.26839         0.025021     -0.010909     -0.029622
Mn	      2.10572      4.21639      6.12102        -0.066032      0.029995     -0.070704
Fe	      8.43011      8.40967      8.32193        -0.023248     -0.087122     -0.122592
Ni	      2.17436      8.33927      6.09865         0.065408     -0.061015     -0.118961
Ni	      4.25340      6.26456      2.04622        -0.012199      0.038660     -0.040487
Ni	      4.22564      2.09282      6.07903         0.016688     -0.020099      0.024151
Ni	      6.34722      4.17115      6.11201        -0.002304      0.046304      0.071908
O	      2.07121      2.08184      1.95943         0.111432     -0.003531      0.072868
O	      4.19608      4.28305      1.88034         0.002963     -0.079127     -0.009090
O	      4.20254      2.11230      4.09629         0.029481      0.003877     -0.110358
O	      6.31876      4.20524      4.20480        -0.017854      0.006836     -0.217002
O	      6.35178      2.00575      6.26593        -0.005259     -0.043487     -0.077191
O	      8.56620      4.17650      6.13978         0.086009      0.031971     -0.001673
O	      2.12306      4.16849      4.25975         0.005497     -0.012525      0.081372
O	      4.25460      6.27183      3.92822         0.018187     -0.007806      0.071181
O	      4.09243      4.17818      6.28061        -0.087942      0.074850     -0.091659
O	      6.33499      6.39659      6.16520        -0.109300      0.063080     -0.003692
O	      6.30540      4.16124      8.09194         0.054498      0.025893      0.133363
O	      8.46968      6.45617      8.15282        -0.057667     -0.177233      0.045989
O	      1.98744      6.18355      6.13788        -0.000730     -0.085867      0.012940
O	      4.32108      8.50787      6.15653         0.075309      0.015500      0.002090
O	      4.25837      6.06469      8.20701         0.004433      0.278282      0.011408
O	      6.35491      8.33439      8.07307        -0.084949      0.022258      0.024222
O	      6.34403      6.28361     10.36144         0.000559      0.016910      0.056451
O	      8.45716      8.35347     10.15502         0.010154     -0.022410      0.317735
