# total energy = -92.55615119 eV
 
CRYSTAL
PRIMVEC
1.973231 4.242625 2.004448 
4.046915 -2.146472 -2.056344 
-0.015234 4.343104 -4.192902 
PRIMCOORD
16 1
Li	      2.04426      0.13151     -2.20850         0.011227      0.016050     -0.006562
Li	      3.98132      2.32988     -2.09914         0.003967      0.002430      0.002252
Li	      3.97756      0.14736     -4.12199        -0.008966      0.010797      0.023176
Li	      4.02520      6.23021     -2.11507         0.018280     -0.003973      0.023861
Mn	      5.99536      2.08347     -0.05994         0.019800      0.000339     -0.022501
Mn	      2.02931      2.13244     -0.07668        -0.024313     -0.007009     -0.058061
Ni	      2.01863      4.24241     -2.07885        -0.041880      0.057856      0.054281
Ni	      3.99574      4.27419     -4.15873        -0.039179     -0.003273     -0.038450
O	      3.97359      4.28342     -2.16532         0.163401      0.004153      0.137312
O	      4.05320      2.22659     -4.33455        -0.107701     -0.112232     -0.064437
O	      4.01323      2.00875     -0.04619        -0.006606      0.115802     -0.021996
O	      4.13033     -0.21664     -2.07486         0.035441     -0.039285     -0.082988
O	      1.96554      4.05093      0.01826        -0.003016     -0.039713      0.116563
O	      1.98553      2.17342     -1.94463        -0.010947     -0.101247      0.064062
O	      2.00008      6.59296     -2.26917         0.107524      0.052552     -0.039044
O	      1.92724      4.50055     -4.18069        -0.117032      0.046753     -0.087467
