# total energy = -222.36580697 eV
 
CRYSTAL
PRIMVEC
-0.022120 6.444016 6.148136 
6.334646 -0.007873 6.134832 
4.229899 4.293114 -0.011376 
PRIMCOORD
36 1
Li	      6.24020      4.20715      2.01530        -0.023934     -0.038547      0.010988
Li	      4.22085      2.27400      2.02557         0.026813      0.014031      0.015119
Li	      6.31632      2.14795      4.06808        -0.030859     -0.078166      0.029271
Li	      4.25991      6.39689      2.08164        -0.008015     -0.094263     -0.034767
Li	      4.25120      4.29267      4.15460        -0.009534      0.001635      0.006952
Li	      4.21593      2.33289      6.05762         0.011362      0.043202     -0.098289
Li	      4.26004      8.48253      4.14044         0.004969      0.040365      0.029009
Li	      2.14514      4.30984      6.10254         0.003104      0.015111     -0.024374
Li	      4.21178      6.38109      6.08250        -0.007015     -0.047396      0.009236
Sc	      4.17445      0.07853      4.10405         0.077202      0.190203     -0.000014
Sc	      6.33358      6.49174      8.09513        -0.167870      0.135740      0.083578
Mn	      2.09540      8.52216      6.15121         0.044572      0.024354     -0.136971
Mn	      6.26510      6.44869      4.12986         0.116132      0.046035     -0.114085
Fe	      2.17945      4.26846      2.10133        -0.024193     -0.074184     -0.097382
Fe	      4.17713      4.31748      8.14853         0.059804     -0.005657      0.257200
Co	      0.01002      6.42439      6.14209        -0.098861     -0.132630     -0.098588
Cu	      6.23456      4.22895      6.13888         0.033949     -0.073271     -0.072093
Cu	      2.22619      6.43288      4.12640         0.015538     -0.059590     -0.054075
O	      4.36419      6.42935      4.09123        -0.067446      0.025670      0.068609
O	      4.30372      4.24818      6.25192        -0.096109      0.015978     -0.201523
O	      2.10867      2.21853      2.06038        -0.044503     -0.039476     -0.208843
O	      4.13396      4.29702      1.86827         0.053625      0.072313      0.024781
O	      4.03878      2.10722      4.10191         0.042232     -0.103397      0.063831
O	      6.30615      4.46384      4.13673        -0.075708      0.027229     -0.026464
O	      6.50691      1.86522      6.11492         0.131175      0.281782      0.064744
O	      8.25168      4.05172      6.19479         0.119357     -0.009166      0.081643
O	      2.11087      4.13138      4.02850        -0.016452     -0.117620      0.197276
O	      6.32534      6.56811      6.03790         0.012262      0.099956     -0.031070
O	      6.32303      4.33034      8.13984         0.032181      0.035936      0.034387
O	      8.44213      6.37954      8.29140         0.073946      0.055524      0.036961
O	      2.18837      6.60865      6.05706         0.136330     -0.011181     -0.074824
O	      4.03279      8.82522      6.13428        -0.270617     -0.248491      0.006439
O	      4.26008      6.32784      8.22370         0.049508      0.006095     -0.041115
O	      6.44817      8.56039      8.18511        -0.054851     -0.118092     -0.030707
O	      6.28293      6.46889     10.28807        -0.022349      0.003966     -0.018496
O	      8.42185      8.63997     10.26994        -0.025743      0.116002      0.343656
