# total energy = -223.41444414 eV
 
CRYSTAL
PRIMVEC
0.033538 6.302438 6.220165 
6.311770 0.023671 6.229809 
4.241273 4.241384 -0.017700 
PRIMCOORD
36 1
Li	      2.21669      8.46176      6.22130         0.037662     -0.001625     -0.005948
Li	      4.27801      8.36932      8.21504         0.037053     -0.061988      0.004375
Li	      8.35747      4.33261      8.23246        -0.035920      0.041831     -0.077696
Li	      8.40080      6.39497      6.32099        -0.000223      0.028982     -0.000429
Li	      6.30201      4.31188      6.33858        -0.051820      0.063114     -0.069389
Li	     10.54804      8.47362     10.34227         0.010229     -0.013669     -0.007320
Li	      2.21965      6.25878      4.09571         0.005799     -0.018226     -0.003475
Li	      4.29292      6.29646      6.27323        -0.000497     -0.016950      0.069253
Li	      6.37422      6.28858      8.14332        -0.002534      0.022444      0.029662
Sc	      6.37031      8.42092     10.37186         0.052417     -0.086602      0.082135
Sc	      2.11356      2.20893      4.23058        -0.002878      0.075116     -0.074292
Mn	      4.25427     10.47129      6.21837         0.235496      0.261383     -0.022070
Mn	      6.27448      2.16033      8.27897         0.017373      0.006352     -0.142119
Fe	      2.20648      6.33431      8.21676        -0.101739     -0.004233      0.098522
Fe	      8.53176     10.49712     10.37595        -0.050168      0.113989     -0.046895
Co	      6.35189      8.45917      6.22590        -0.069840      0.088676     -0.011718
Ni	      4.18506      4.25413      4.20734         0.056014     -0.024291     -0.102307
Ni	      4.27755      4.18611      8.24408        -0.013346     -0.005481      0.056886
O	      1.97735      2.01852      2.07313         0.012962      0.096683     -0.000863
O	      4.28800      4.35241      1.96704        -0.073353     -0.082821      0.056844
O	      4.22344      2.08783      4.09933        -0.000406     -0.047549     -0.010913
O	      6.34624      4.24039      4.14429         0.128826      0.008259      0.035714
O	      6.34050      1.96180      6.27793        -0.009051      0.052752      0.077838
O	      8.64145      4.21769      6.14729        -0.201069      0.009955      0.135808
O	      2.16284      4.22954      4.29432        -0.213065      0.007189     -0.002057
O	      4.27246      6.29256      3.95434        -0.051116      0.107714      0.007696
O	      4.05009      4.25992      6.20460        -0.019405     -0.006229      0.086053
O	      6.30529      6.47904      6.22577         0.017593     -0.022228      0.030333
O	      6.33415      4.03886      8.24876         0.122517      0.055632      0.016695
O	      8.63223      6.37118      8.28632        -0.005665     -0.125734      0.008262
O	      1.99840      6.18936      6.25760         0.062141     -0.060222     -0.119469
O	      4.37289      8.60401      6.23795         0.005762     -0.262495     -0.008242
O	      4.16561      6.31078      8.36827         0.151841      0.089444     -0.047496
O	      6.38528      8.52358      8.24340        -0.123016     -0.098337     -0.047245
O	      6.30663      6.34389     10.50292         0.028266     -0.070180     -0.055322
O	      8.42169      8.54123     10.34660         0.043163     -0.120658      0.059191
