# total energy = -224.91602807 eV
 
CRYSTAL
PRIMVEC
0.015720 6.254173 6.199714 
6.374933 -0.016023 6.231147 
4.239199 4.179756 -0.000188 
PRIMCOORD
36 1
Li	      4.33591      8.27651      8.17839        -0.054653      0.062051      0.071436
Li	      4.22451      0.06249      4.06765        -0.036936      0.042898      0.068505
Li	      6.48854      8.29057     10.27465        -0.015899      0.029237      0.143378
Li	      0.10351      1.99654      2.07097        -0.066911     -0.050198     -0.013511
Li	      8.34100      4.20647      8.32491         0.040511      0.044068      0.026665
Li	     10.58929      8.32521     10.34000         0.054347     -0.007792     -0.035769
Li	      6.28606      8.38290      6.29262        -0.052142     -0.091912     -0.226284
Li	      4.23990      6.35470      6.27412         0.106135     -0.054719     -0.074637
Li	      4.21890      4.26738      8.34077         0.184562     -0.091982     -0.006233
Sc	      4.20264      4.12332      4.05661        -0.079452     -0.011004     -0.124100
Sc	      6.39435      4.12625      6.24791        -0.013677      0.061452      0.059372
Mn	      8.50934      6.25661     10.33745        -0.080082     -0.184047     -0.058743
Mn	      6.28465      6.32221      8.33079         0.299449     -0.365981     -0.128972
Fe	      2.33663      8.32626      6.22114        -0.252846      0.234606     -0.051734
Fe	      4.28583      2.09753      6.25051        -0.095306     -0.168938      0.225613
Co	      6.40896     10.34138      8.28171         0.496234     -0.402797     -0.036475
Co	      2.05075      2.13955      4.09155        -0.018824      0.038717     -0.021351
Ni	      4.26197     10.41622      6.21731        -0.100642      0.063621     -0.028818
O	      2.12796      1.85218      2.03848         0.162237      0.450018      0.018374
O	      4.47460      4.11024      2.02273        -0.924867     -0.067227      0.149154
O	      4.11326      2.06299      4.30909         0.019243     -0.006437     -0.303756
O	      6.34931      4.18489      4.07058         0.011106      0.018819      0.688813
O	      6.28394      2.05688      6.30457         0.202293      0.026817     -0.024425
O	      8.50966      4.12147      6.27491        -0.087622      0.016837     -0.038313
O	      2.14257      4.25994      4.05823        -0.023570      0.120043      0.136115
O	      4.11931      6.22822      4.07577        -0.036723      0.052408      0.046210
O	      4.33608      4.07109      6.16602        -0.058878      0.143638      0.053539
O	      6.44367      6.26149      6.31640        -0.086921      0.120557      0.120947
O	      6.34932      4.40051      8.26472        -0.073535     -0.065912      0.082673
O	      8.32206      6.28808      8.34662         0.011906      0.052587      0.139668
O	      2.11753      6.29829      6.18595         0.150233     -0.251757     -0.704153
O	      4.21048      8.39558      6.16503         0.232116     -0.179326      0.049448
O	      4.36555      6.28430      8.31065         0.214571     -0.050322     -0.024975
O	      6.40507      8.33929      8.29039        -0.033313      0.287287     -0.010271
O	      6.52257      6.26523     10.26869         0.037690      0.108865      0.007367
O	      8.49351      8.14803     10.48376        -0.029830      0.075823     -0.174754
