# total energy = -226.50478661 eV
 
CRYSTAL
PRIMVEC
0.010849 6.201995 6.308410 
6.328773 -0.014563 6.333446 
4.228692 4.161404 -0.019571 
PRIMCOORD
36 1
Li	      2.19000      2.05965      0.13896        -0.001211     -0.000552      0.004953
Li	      6.20273      4.17988      2.01240         0.027759      0.006399      0.054065
Li	      4.27854      2.20383      2.02968         0.018589      0.018668      0.040494
Li	      2.14801      4.02984      2.18969        -0.006519     -0.012726      0.017750
Li	      2.02484      2.26671      4.10055        -0.042936     -0.003849     -0.014197
Li	      4.15979      4.08025      4.25263         0.045511      0.015755      0.006482
Li	      0.18272      4.05831      4.29514         0.012530      0.015702      0.017956
Li	      2.02196      4.18966      6.22669         0.060371      0.003529     -0.032061
Li	      8.40497      8.27786      8.37458        -0.021600     -0.011026      0.001813
Sc	      8.39539     10.30156     10.41016        -0.109305     -0.062641     -0.010084
Sc	      2.19575      6.13725      4.19671         0.057444     -0.022231      0.048680
Mn	      4.21495      2.08206      6.30550         0.037024      0.037356     -0.021514
Mn	      4.18179      6.28656      6.34830        -0.015793     -0.015253     -0.003055
Fe	      6.29847      4.05800      6.34632         0.065005      0.025320     -0.040655
Fe	      6.35412      6.26575      8.40556         0.034509     -0.131136     -0.008247
Co	      4.26955     10.35402      6.32660         0.026262     -0.009910      0.105183
Co	      6.35456      8.25614     10.50618         0.028255      0.036385      0.054161
Co	      0.08948      2.04838      2.13135         0.222575     -0.023164      0.041294
O	      1.90656      2.03742      2.14200        -0.188714      0.018325     -0.028640
O	      4.20598      4.32462      1.89578         0.033626      0.095583     -0.132371
O	      4.34287      2.05375      4.32768         0.105980     -0.034021     -0.030709
O	      6.35773      3.98726      4.31730        -0.005581     -0.026306     -0.022807
O	      6.40137      2.00673      6.17386        -0.003436     -0.048394     -0.030816
O	      8.51976      4.26892      6.24417        -0.077005      0.041356     -0.094999
O	      2.14007      4.18536      4.19910         0.022714      0.025804     -0.008064
O	      4.23684      6.24199      4.39734        -0.063722      0.055501     -0.015989
O	      4.31265      4.01888      6.34186        -0.071834     -0.071304     -0.005158
O	      6.24480      6.12267      6.39810        -0.015260      0.036601      0.010141
O	      6.36673      4.04702      8.32630        -0.030283     -0.071104      0.040392
O	      8.46806      6.21397      8.31955         0.030357     -0.027995     -0.002951
O	      2.14566      6.20699      6.29693         0.049865      0.010986     -0.051306
O	      4.20934      8.45428      6.34636         0.004440      0.061881      0.032839
O	      4.31939      6.21244      8.33678        -0.039874     -0.007695     -0.031408
O	      6.32820      8.18397      8.58137        -0.037317      0.130112      0.061610
O	      6.34458      6.26475     10.50892        -0.025574     -0.038442      0.050574
O	      8.31078      8.27532     10.46016        -0.126853     -0.017515     -0.003357
