# total energy = -219.04029310 eV
 
CRYSTAL
PRIMVEC
0.009821 6.245537 6.488936 
6.182236 0.037409 6.460429 
4.145813 4.168443 0.001457 
PRIMCOORD
36 1
Li	      4.17911     10.35950      6.47721        -0.043500      0.073045     -0.036517
Li	      2.15606      8.21530      6.58374        -0.061133      0.016002     -0.004510
Li	      2.07417      6.30201      8.55122        -0.006549     -0.032592      0.053028
Li	      4.14773      8.29326      8.51593         0.003232      0.005409      0.031782
Li	      6.16099      2.15928      4.38113         0.015804     -0.019439      0.030930
Li	      6.21053      6.22076      4.30742        -0.006393      0.005068     -0.024471
Li	      6.18383      4.17785      6.36473         0.025487     -0.059413     -0.040714
Li	      4.13154      6.34214      6.55976         0.049399     -0.091737     -0.003371
Li	      6.12616      6.35506      8.61546         0.014736      0.010028      0.022394
Sc	      8.20625      4.09727      8.55416         0.079544     -0.016457     -0.148127
Sc	      8.16949      6.34631     10.88662        -0.082749      0.029995      0.115901
Mn	      4.23952      4.16370      4.27401         0.035863     -0.023083     -0.132045
Mn	      4.10968      4.23906      8.61727         0.157190     -0.010768      0.103878
Fe	      4.10540      6.28720     10.74810        -0.059133      0.131866      0.224441
Fe	      4.13733      2.12558      6.42981         0.134937     -0.124420     -0.048252
Cu	      6.17831      8.36058      6.52330         0.137533     -0.120135      0.235738
Ni	      0.04190      2.04426      2.14695        -0.026969     -0.046933     -0.121027
Ni	      4.16206      8.31287      4.42336        -0.062585     -0.077642     -0.190217
O	      4.24912      8.28289      6.41081        -0.021765     -0.005544      0.182293
O	      2.05100      2.11497      2.05117         0.193994     -0.008681     -0.054140
O	      4.12941      4.16667      2.35338        -0.063303     -0.192486      0.015248
O	      4.16452      2.16141      4.37064        -0.070038     -0.029794     -0.119866
O	      6.15685      4.18713      4.33529         0.009620      0.050680      0.028399
O	      5.96855      2.10415      6.54891         0.426143      0.014056      0.046234
O	      8.19987      4.36100      6.42357        -0.091452     -0.193321      0.062035
O	      2.17175      4.20468      4.23335         0.068519     -0.091526     -0.122795
O	      4.14628      6.12542      4.28429        -0.041435      0.020461      0.087782
O	      4.14859      4.10241      6.29685        -0.160518      0.293340     -0.037355
O	      6.39784      6.42545      6.48297        -0.490598      0.170987      0.028336
O	      6.10823      4.16340      8.75335        -0.081839      0.127691     -0.045995
O	      8.26607      6.37602      8.62948        -0.070699      0.021132      0.084484
O	      2.07169      6.12327      6.46112        -0.047345      0.010122     -0.206958
O	      4.13923      6.16643      8.78243        -0.007274      0.106108     -0.176229
O	      6.38765      8.36481      8.55201        -0.095615      0.033489      0.017104
O	      6.10864      6.24887     10.81859         0.231844      0.083151      0.054598
O	      8.26081      8.41345     10.88314         0.007046     -0.058659      0.087985
