# total energy = -218.19680706 eV
 
CRYSTAL
PRIMVEC
0.023529 6.358603 6.089808 
6.560033 0.024649 6.088921 
4.367136 4.232226 0.023282 
PRIMCOORD
36 1
Li	      6.51701      4.15654      2.15027        -0.030963      0.080464      0.108562
Li	      4.62992      8.38823      8.22158        -0.129800     -0.029452      0.001758
Li	      4.24863      0.18990      3.91515        -0.033564     -0.092203      0.016954
Li	      6.54166      8.49695      9.96240         0.040808      0.093010      0.184880
Li	      2.22964      4.22398      2.15585         0.008942     -0.022040     -0.078298
Li	      2.35796      2.02100      3.92972         0.033281     -0.024890      0.030415
Li	      4.39399      4.18402      3.97001         0.049802      0.016960     -0.004428
Li	      0.07599      4.24738      4.03949        -0.032428     -0.026430     -0.031532
Li	      8.63447      8.55223      8.21192         0.090230     -0.007897      0.011400
Sc	      2.25744      2.17746      0.04943        -0.160720      0.254335      0.000614
Sc	      4.37290      2.18237      5.96536         0.080171     -0.027148      0.075107
Mn	      4.37652      6.36793      2.13605        -0.019636      0.090642     -0.051097
Mn	      4.38323      6.31897      6.14470         0.009330     -0.055954     -0.115771
Fe	      6.55708      4.28549      6.03622         0.129831      0.060494      0.254598
Fe	      8.68352      6.37240     10.14682         0.163564      0.209387     -0.249042
Cu	      4.41219     10.57352      6.12246        -0.203133      0.073284     -0.027899
Cu	      6.51347      8.50798      6.14329         0.126536     -0.205562     -0.108641
Ni	      6.48479      6.36237      8.19598         0.072143     -0.288006      0.006105
O	      2.16935      4.48427      4.19353        -0.013734     -0.500294      0.315144
O	      6.59769      8.35854      8.01269         0.006262      0.256721     -0.153124
O	      1.88937      2.16198      2.09117         0.061226      0.003897     -0.053374
O	      4.36153      4.46688      1.95872        -0.040566     -0.015183      0.154601
O	      4.36590      2.17570      4.04077         0.113700     -0.005238     -0.125318
O	      6.60737      4.21653      4.24867         0.050413     -0.065847     -0.936290
O	      6.56299      2.31274      6.24242         0.005347     -0.351088     -0.071896
O	      8.78860      4.27447      6.04978         0.083443     -0.054455      0.032356
O	      4.21041      6.39051      4.06238         0.011996     -0.003052      0.144004
O	      4.51374      4.33668      6.06318        -0.264476      0.002408      0.009030
O	      6.63471      6.24984      6.12604        -0.012631      0.555862     -0.122667
O	      6.58998      4.20802      7.97275         0.066030     -0.072716      0.666141
O	      8.91213      6.35862      8.18074        -0.023143     -0.013569     -0.099462
O	      2.14534      6.39456      6.11451         0.034711     -0.267633      0.181116
O	      4.30479      8.27528      6.16343         0.108086      0.013644      0.001884
O	      4.45056      6.31814      8.04104        -0.129896     -0.027860     -0.005659
O	      6.72119      6.32514     10.22148        -0.209604      0.046846     -0.012523
O	      8.67999      8.22880     10.19000        -0.041561      0.398562      0.052352
