# total energy = -218.99657177 eV
 
CRYSTAL
PRIMVEC
0.009693 6.370211 6.157923 
6.451070 0.021971 6.144927 
4.316424 4.253303 -0.000620 
PRIMCOORD
36 1
Li	      2.29808      8.31031      6.04498         0.051826      0.014586      0.017132
Li	      2.19453      6.25129      8.08824        -0.032788      0.000150     -0.043126
Li	      6.50056      8.51400     10.20228         0.016450     -0.039016     -0.081998
Li	      6.40990      6.45719      4.18659        -0.009485      0.078052     -0.030359
Li	     10.73419      8.49279     10.18817        -0.025306     -0.011034      0.086453
Li	      2.27383      6.45916      4.11220         0.006667     -0.020017      0.036691
Li	      6.46971      8.52515      6.19518        -0.041334      0.053249     -0.079751
Li	      4.07804      6.51834      6.15790        -0.063728     -0.032121     -0.021331
Li	      8.54638      8.39839      8.22495        -0.052308      0.023283      0.031862
Sc	      0.20444      6.34018      6.01364         0.054540     -0.067269      0.087424
Sc	      8.48839     10.50351     10.22574         0.079368     -0.084491     -0.031270
Mn	      4.28862      8.47167      8.18147         0.034358      0.051970     -0.093894
Mn	      4.32670      2.14665      6.17403         0.001506      0.024418      0.066790
Fe	      0.15325      2.22984      2.10335         0.027782     -0.087856     -0.063883
Fe	      4.28818      4.31364      4.18303        -0.207541      0.006684     -0.066292
Cu	      2.21311      4.25545      2.09276        -0.098151      0.163600      0.047176
Cu	      6.40780      4.31800      6.17990        -0.136514     -0.105221     -0.081985
Cu	      6.46533      6.42321      8.25091        -0.022590     -0.043105     -0.004041
O	      6.72775      6.31858      6.30741         0.018648     -0.026400      0.034013
O	      6.63210      4.25421      8.14463        -0.131083      0.098145     -0.075537
O	      6.17550      8.41925      8.22599        -0.135788      0.036827      0.017785
O	      2.19563      2.27842      2.00764         0.095655     -0.280127      0.036302
O	      4.29693      4.14119      2.09241         0.288731     -0.025334     -0.045067
O	      4.25528      2.17938      4.14861         0.029966     -0.026343      0.027465
O	      6.35863      4.26986      4.23032         0.024949      0.022913     -0.048786
O	      6.33406      2.14317      6.23025        -0.006041      0.084850     -0.070766
O	      8.75193      4.46963      6.16063         0.084045      0.021650     -0.014011
O	      2.28589      4.27665      4.03181         0.143539      0.020333      0.078472
O	      4.36963      6.30635      4.00895         0.015344      0.087470      0.206585
O	      4.22588      4.05531      6.16686         0.000812     -0.030200      0.145141
O	      8.84012      6.33265      8.08768         0.160804      0.201263     -0.114327
O	      2.13045      6.37080      6.12971         0.016160      0.040510      0.000981
O	      4.29880      8.53743      6.30350        -0.053673     -0.068623      0.026327
O	      4.13229      6.60512      8.19532        -0.078408     -0.005090     -0.032390
O	      6.34442      6.36148     10.17705        -0.004317     -0.050183     -0.002668
O	      8.57819      8.56384     10.16962        -0.052093     -0.027523      0.054884
