# total energy = -219.54371193 eV
 
CRYSTAL
PRIMVEC
0.017107 6.353729 6.324239 
6.203447 0.009003 6.332640 
4.126142 4.232101 0.015340 
PRIMCOORD
36 1
Li	      6.15720      4.10867      2.28725        -0.038159     -0.079073      0.034198
Li	      4.18720      2.16127      2.16224        -0.011861      0.026906     -0.016414
Li	      6.08112      2.22110      4.21083         0.030408      0.023607      0.007288
Li	     10.30962      6.33031      8.42295        -0.003719     -0.045806     -0.047518
Li	      4.21941      4.14357      4.24455        -0.002853     -0.014389     -0.001350
Li	      4.20039      2.19426      6.19980         0.013965      0.059663     -0.057532
Li	      6.08751      4.29282      6.30535         0.023211      0.068127     -0.025103
Li	      6.21752      4.24700     10.53610         0.010059     -0.021286      0.024092
Li	      6.21325      8.41358      6.42135         0.034310     -0.000703      0.041297
Sc	      8.24027      2.13396      6.36189        -0.042514     -0.040125      0.015631
Sc	      6.22538      6.29139      4.29398        -0.063027      0.037742     -0.001502
Mn	      4.14669     10.56793      6.33993         0.033120     -0.031864      0.027445
Mn	      2.09732      6.31515      4.20780         0.073409     -0.033839      0.023399
Fe	      8.23885      4.24855      8.46133        -0.024303      0.055717     -0.121264
Fe	      4.15794      4.29073      8.38529         0.176158     -0.083535      0.230414
Ni	      4.11850      0.09474      4.16594         0.047637     -0.047223      0.047578
Ni	      4.16819      6.34743      6.37788        -0.096451      0.044691      0.013405
Ni	      6.21394      6.39557      8.37133         0.004387      0.064975      0.071328
O	      1.98774      2.27321      2.10837        -0.011159     -0.102363     -0.036692
O	      4.05183      4.22779      1.91682         0.103450      0.000273     -0.043129
O	      4.10587      2.10754      4.18861         0.026969      0.180283     -0.012299
O	      6.23139      4.27534      4.25509        -0.146619      0.000625      0.032947
O	      6.21334      1.90840      6.32969        -0.033654     -0.041199     -0.062005
O	      8.39236      4.22123      6.32024        -0.013158      0.013685      0.057911
O	      2.09240      4.35707      4.10467        -0.008942      0.033192      0.126643
O	      4.00511      6.33254      4.33090        -0.077729     -0.019760     -0.139397
O	      4.15210      4.26589      6.53867        -0.036505     -0.067522     -0.248956
O	      6.16492      6.40171      6.33338         0.175420     -0.003056     -0.089050
O	      6.16244      4.29855      8.40705         0.062639     -0.072538      0.013023
O	      8.25876      6.31727      8.62891         0.149655      0.031443     -0.000673
O	      2.00694      6.35659      6.18405        -0.093168     -0.047874     -0.028907
O	      4.12723      8.58209      6.34493         0.017813      0.054560     -0.000254
O	      4.18618      6.30702      8.45494        -0.135196      0.087968      0.022890
O	      6.43440      8.43663      8.45933        -0.240670      0.088429      0.046822
O	      6.30714      6.32858     10.65559         0.084323     -0.040594      0.050216
O	      8.31235      8.32909     10.47473         0.012755     -0.079138      0.045517
