# total energy = -92.92238586 eV
 
CRYSTAL
PRIMVEC
2.099600 4.293048 2.072318 
4.126660 -2.115457 -2.060673 
0.005628 4.314648 -4.192543 
PRIMCOORD
16 1
Li	      2.11263      2.28526     -0.09081        -0.004945      0.127717     -0.090805
Li	      2.10711      0.13142     -2.12353        -0.189832      0.077800     -0.004166
Li	      4.18946      2.23532     -2.07266        -0.089694      0.081721     -0.008703
Li	      2.17408      4.27472     -2.06167         0.074258     -0.220379     -0.006269
Mn	      0.04599      0.07964     -0.02104         0.588850     -0.658495     -1.350406
Mn	      2.09092      2.19985     -4.20640         0.074035      0.643600      0.968943
Ni	      0.02007      2.15670     -2.08100         0.621038     -0.064175      0.003774
Ni	      4.18960      4.40916     -4.25174        -0.191491     -0.235542      0.321423
O	      4.22837      4.58074     -2.16929        -0.390511     -0.024107     -0.177905
O	      4.09522      2.24659     -4.31803        -0.409434      0.229892      0.440624
O	      4.31916      2.13830      0.09371        -0.185110      0.143056     -0.200636
O	      4.23620     -0.18836     -2.07601        -0.160364      0.697901      0.164959
O	      2.07319      4.38809      0.12233        -0.129671     -0.137632      0.215201
O	      2.12188      2.20298     -2.25916         0.037870      0.139521     -0.538753
O	      2.21486      6.69151     -2.13380         0.266572     -0.382728      0.016639
O	      2.01966      4.22609     -4.24485         0.088428     -0.418150      0.246080
