# total energy = -225.73908224 eV
 
CRYSTAL
PRIMVEC
0.004539 6.221367 6.411812 
6.252019 0.017788 6.398738 
4.179048 4.149852 0.000605 
PRIMCOORD
36 1
Li	     10.34546      4.18842      6.43339         0.019087      0.077646      0.037962
Li	      8.31728      4.20597      4.35253        -0.038027     -0.002209     -0.018527
Li	      8.32491      4.22272      8.43970        -0.040739     -0.003538     -0.073591
Li	      6.31107      6.19193      4.31716        -0.003016     -0.025259      0.017920
Li	      8.29076      6.06170      6.47513        -0.024595      0.019706      0.038937
Li	      6.30419      4.28711      6.38699        -0.031888      0.002815     -0.026396
Li	      8.32390      6.24028     10.58003        -0.005387     -0.010350     -0.115276
Li	      4.25625      6.17897      6.52743         0.026473     -0.078253      0.127342
Li	      4.25924      4.10568      8.54519        -0.123287      0.045910     -0.020934
Sc	      8.36656      2.20336      6.39758        -0.343024     -0.073647      0.106077
Sc	      6.29665      8.26345      6.41100         0.286151     -0.083729      0.211324
Mn	     10.28861      6.28738      8.46369         0.398190     -0.207294     -0.048407
Mn	      6.26743      4.18083     10.61503        -0.044455     -0.010256     -0.135129
Fe	      2.17974      6.26783      8.56234         0.063524     -0.141816      0.159128
Fe	      6.26687      8.23372     10.74104        -0.013205      0.078920     -0.071148
Fe	      4.17165      4.16468      4.32348         0.102916      0.131757     -0.147813
Co	      4.16073      2.09886      2.14027        -0.061987      0.208807      0.111165
Ni	      6.26377      6.15888      8.49267         0.028780      0.062536     -0.065781
O	      2.13938      2.04557      2.15709        -0.898142      0.143660     -0.151656
O	      4.22547      4.21783      2.25144        -0.147047      0.467378     -0.054225
O	      4.23418      2.14248      4.08246        -0.109749      0.030414      0.137146
O	      6.19582      4.04852      4.19670         0.027672     -0.006951      0.063761
O	      6.24313      2.05308      6.42503         0.064439     -0.024312     -0.038466
O	      8.36373      4.13480      6.38629         0.031097     -0.035676     -0.041173
O	      2.03761      4.14765      4.32748        -0.223288      0.032789      0.028681
O	      4.16375      6.29244      4.02548        -0.027249      0.113606      0.004773
O	      4.15284      4.21266      6.20576        -0.074685      0.013108      0.040047
O	      6.27123      6.24581      6.51346        -0.031310      0.120700     -0.220179
O	      6.21821      4.04740      8.49682         0.060204      0.067222      0.307132
O	      8.43264      6.25300      8.49415        -0.061916     -0.066518      0.013674
O	      2.09232      6.21314      6.61284        -0.020716     -0.021084     -0.124091
O	      4.19041      8.30429      6.53767         0.018375      0.052788     -0.233852
O	      4.16329      6.39542      8.58640        -0.118375     -0.866167     -0.020292
O	      6.14324      8.30866      8.62943         1.020676      0.155204     -0.049382
O	      6.28376      6.17753     10.54744        -0.009973     -0.169274      0.193337
O	      8.31493      8.27690     10.70556         0.304476      0.001366      0.057908
