# total energy = -223.07518598 eV
 
CRYSTAL
PRIMVEC
0.011343 6.288332 6.581085 
6.224885 0.060024 6.534557 
4.207102 4.216693 -0.016373 
PRIMCOORD
36 1
Li	      4.12666      2.17765      2.08438        -0.020092     -0.031510      0.018997
Li	      4.18613      6.33851      2.30962         0.044680     -0.042270     -0.024330
Li	      8.19790      4.41036      8.65414         0.001669      0.081332     -0.005901
Li	      8.25954      6.40881      6.77395         0.044741     -0.063557     -0.041456
Li	      6.27416      4.28426      6.80914         0.043961     -0.046047      0.009999
Li	      0.07200      4.10038      4.28068        -0.012697      0.134906      0.008258
Li	      2.23796      6.25212      4.19721        -0.078513     -0.014720     -0.032008
Li	      4.28558      6.25869      6.40892        -0.013801     -0.029816      0.118805
Li	      6.39452      6.20890      8.65272         0.008801     -0.013624      0.048080
Sc	      4.13768      0.08008      4.33054        -0.004454      0.042715      0.008303
Sc	      6.20856      2.13565      4.32382        -0.060210      0.030427      0.047674
Mn	      2.06440      6.32550      8.67200         0.032979      0.126156      0.101392
Mn	      6.28852      8.34411      6.59224         0.044071     -0.116658     -0.006035
Fe	     10.39426      4.30467      6.55801        -0.049069      0.072983     -0.116831
Fe	      2.17518      8.39509      6.56971        -0.002931     -0.020027     -0.035091
Fe	      4.33912      4.09347      8.68884        -0.267230      0.183654      0.089216
Cu	      6.22971      6.37943      4.39443         0.108364      0.062591     -0.032781
Cu	      4.12842      4.28432      4.36730        -0.127913     -0.068146     -0.023120
O	      2.15884      4.17477      4.67586        -0.096123      0.009133      0.093311
O	      4.30138      6.22085      4.38253         0.004398     -0.000460      0.048209
O	      2.14527      1.93352      1.92993        -0.032371     -0.068829      0.091647
O	      4.33918      4.25171      1.97421         0.040764      0.001145      0.082780
O	      4.10348      2.18088      4.30825        -0.036656      0.027281     -0.045185
O	      6.18816      4.29301      4.08221         0.113077     -0.049491     -0.230763
O	      6.35355      2.11485      6.38474        -0.066960      0.058137     -0.045708
O	      8.37946      4.17581      6.48494        -0.070489      0.119939     -0.024595
O	      4.00473      4.20474      6.72955        -0.074728      0.020106      0.006245
O	      6.24520      6.50737      6.68233        -0.006034      0.074994      0.107874
O	      6.20555      4.25960      8.74489         0.271614     -0.009898      0.084067
O	      8.35469      6.43131      8.79373         0.003617     -0.243446      0.024634
O	      2.07532      6.23909      6.72481         0.067176     -0.063298     -0.089978
O	      4.26325      8.49533      6.52754         0.091443     -0.091048      0.014795
O	      3.98456      6.19974      8.86258         0.019255      0.053829     -0.073607
O	      6.26414      8.56957      8.67257        -0.007275     -0.038351      0.007504
O	      6.16933      6.41510     11.02692         0.038584     -0.034491     -0.065062
O	      8.31087      8.48165     11.00779         0.048354     -0.053641     -0.119340
