# total energy = -224.08788948 eV
 
CRYSTAL
PRIMVEC
0.008496 6.321486 6.304049 
6.343824 -0.008984 6.321923 
4.220915 4.217760 0.002449 
PRIMCOORD
36 1
Li	      8.33430      2.18940      6.40149        -0.006984      0.036216      0.039952
Li	      6.41886     10.43172      8.52161         0.022481     -0.056748      0.066883
Li	      4.27334      2.08298      2.18325        -0.000174      0.007482      0.044745
Li	      4.18664      6.35267     10.34812        -0.028978      0.056225     -0.041653
Li	      6.35220      2.14263      8.30512         0.009539      0.017653     -0.031379
Li	      4.30870      2.13997      6.29427         0.015510      0.004100     -0.026625
Li	      6.36900      4.05292      6.34870         0.006269     -0.049595      0.006006
Li	      8.40471      8.47251      8.41677        -0.009507     -0.014471     -0.006732
Li	      6.31230      6.33357      8.43257        -0.001692     -0.008052     -0.015185
Sc	      2.25527      1.97394      4.17407         0.017792     -0.105818     -0.018936
Sc	      4.22166      6.32518      6.49900         0.039525     -0.022280      0.046782
Mn	      8.45078      4.20278      8.37600        -0.034853     -0.001584     -0.060939
Mn	      8.46612      6.30840     10.46471         0.011572      0.059946     -0.028314
Fe	      6.30927      0.10459      6.39302         0.019900     -0.133482     -0.042530
Fe	      6.24984      4.23636     10.44799         0.064351     -0.007005     -0.001759
Fe	      6.38618      8.38852      6.54639        -0.026969      0.016255     -0.128156
Ni	      6.29776      2.14076      4.18366         0.092053     -0.060353     -0.031951
Ni	      4.27732      4.16851      4.19392        -0.036238      0.056714     -0.058939
O	      2.09152      2.31160      2.14197         0.039627     -0.024172     -0.017503
O	      4.06975      4.23564      2.06378        -0.004753     -0.011135      0.046748
O	      4.23868      2.12742      4.21218        -0.142296     -0.162642     -0.003599
O	      6.30141      4.20684      4.20134         0.195759      0.167720      0.025176
O	      6.36068      2.00910      6.23604         0.004431      0.132016      0.122586
O	      8.51871      4.22094      6.49454        -0.102746      0.016369      0.038790
O	      2.10956      4.30191      4.09376        -0.076714      0.089399      0.027110
O	      4.09790      6.35678      4.21866        -0.075782      0.063132      0.004332
O	      4.13019      4.25002      6.26212         0.055148      0.056571      0.133245
O	      6.28195      6.44907      6.23721        -0.033646     -0.089173      0.024279
O	      6.51242      4.21646      8.51046         0.036010      0.025285     -0.142384
O	      8.45413      6.17793      8.58375         0.012525      0.031493      0.053518
O	      2.07788      6.23754      6.15890         0.056544      0.041577     -0.091820
O	      4.31751      8.47875      6.15698        -0.044366     -0.021486      0.075126
O	      4.21969      6.31364      8.41944        -0.014959      0.005785     -0.026277
O	      6.33527      8.44276      8.40194        -0.005131     -0.021508      0.111058
O	      6.50779      6.26701     10.57832         0.017843      0.001751     -0.085281
O	      8.51052      8.21881     10.46754        -0.071089     -0.096185     -0.006375
