# total energy = -228.55111064 eV
 
CRYSTAL
PRIMVEC
-0.013791 6.251456 6.393198 
6.353466 -0.018685 6.397765 
4.226108 4.160820 -0.002642 
PRIMCOORD
36 1
Li	      6.33466      6.24003     12.67240         0.002038     -0.004010     -0.104586
Li	      6.35496     10.32491      8.55297         0.038480     -0.066427     -0.002714
Li	      4.27264      2.07965      2.20615         0.035803      0.012844      0.009634
Li	      4.33959      6.22131     10.57203         0.036693      0.004136     -0.032834
Li	      6.33113      8.22873     10.61198         0.027089     -0.048074     -0.030814
Li	     10.54799      6.22665      8.54607        -0.016939     -0.021736     -0.020066
Li	      6.36883      4.11082      6.39556         0.008040     -0.030220     -0.065274
Li	      8.36576      6.25516     10.60402        -0.008554      0.012608      0.026444
Li	      6.32252      6.26349      8.63516        -0.000613      0.045197      0.022622
Sc	      8.35040      2.08401      6.43442         0.026281     -0.052361     -0.026900
Sc	      8.55288      6.12714      6.41256        -0.017566     -0.058545     -0.020985
Mn	      4.24297      4.18359      4.21150         0.003691     -0.018287      0.043151
Mn	      6.30973      8.36942      6.46689        -0.010331      0.030241      0.030741
Fe	      2.11910      2.02425      4.13974         0.022370      0.104623      0.140712
Fe	      6.32019      4.32598     10.61248         0.043225     -0.147397      0.172537
Fe	      4.24857      6.23423      6.49351         0.012646      0.025731     -0.048967
Fe	      8.45863      8.29191      8.63600        -0.037624      0.064909     -0.092289
Cu	      8.43874      4.20502      8.51930        -0.018003      0.024519     -0.098859
O	      4.08481      4.19594      2.36985        -0.019234      0.020136      0.058270
O	      2.10221      2.20488      2.17541        -0.024187     -0.054019     -0.064864
O	      4.14599      2.21853      4.27146         0.047939      0.088016     -0.020161
O	      6.14411      4.22818      4.18461        -0.095558     -0.084836     -0.011411
O	      6.34926      2.01757      6.37610        -0.052621      0.002555      0.006397
O	      8.40334      4.13151      6.27900        -0.005554      0.024720     -0.088100
O	      2.17176      4.14506      4.46597         0.034932      0.000884      0.050923
O	      4.29936      6.14631      4.35577        -0.034650     -0.004451     -0.031306
O	      4.31178      4.18291      6.31546         0.055913     -0.052830     -0.016484
O	      6.32485      6.35805      6.29826         0.029952     -0.105147     -0.038000
O	      6.33014      4.12539      8.66354         0.012520     -0.035530     -0.137101
O	      8.45924      6.27003      8.47278         0.013567     -0.004134      0.025230
O	      2.19010      6.18896      6.43696        -0.007935      0.116366      0.036325
O	      4.15608      8.24272      6.29122        -0.084625      0.056766      0.025454
O	      4.26045      6.13177      8.43212         0.010319      0.020250      0.125920
O	      6.45175      8.30597      8.38498        -0.029969     -0.002441      0.098877
O	      6.36373      6.17348     10.66352         0.005230      0.159023     -0.011195
O	      8.51547      8.29689     10.61518        -0.002764     -0.023078      0.089672
