# total energy = -229.04950433 eV
 
CRYSTAL
PRIMVEC
0.016639 6.187554 6.321051 
6.402017 0.011919 6.326057 
4.286302 4.146550 -0.010393 
PRIMCOORD
36 1
Li	      6.46898     10.26619      8.46491         0.032823     -0.052721     -0.011543
Li	      4.34014      8.24966      8.43898         0.010878      0.003642      0.008185
Li	      4.25048      6.16615     10.45124         0.006608     -0.004416     -0.070013
Li	     10.67010      6.26987      8.49285         0.004046      0.038838      0.059564
Li	      4.27584      4.14066      4.15394        -0.009801     -0.025138     -0.071306
Li	      6.38685      4.12406      6.37030        -0.033308      0.005630      0.056455
Li	      0.03046      4.06510      4.14610         0.030861     -0.027433      0.003484
Li	      2.20644      4.11192      6.30157         0.055364     -0.022454     -0.082251
Li	      4.29585      4.16284      8.43628        -0.010274      0.010344      0.029830
Sc	      4.37267     10.26963      6.37065         0.024155     -0.045202      0.066770
Sc	      6.37286      6.14747      4.17118        -0.047192     -0.032299      0.024473
Mn	      6.42730      2.15554      4.16502         0.004369     -0.033326      0.112675
Mn	      4.28039      2.16568      6.34526         0.009895      0.035481     -0.072925
Fe	      2.15745      2.10732      0.02136        -0.080305     -0.011118     -0.020920
Fe	      2.14559      4.15649      2.16667         0.063588     -0.014546     -0.089725
Fe	      4.25749      6.09505      6.35637        -0.000329      0.097412     -0.082883
Fe	      6.33410      6.17644      8.43155         0.012464      0.136275      0.004715
Ni	      2.21857      6.18735      4.16964         0.021794      0.017345     -0.000305
O	      2.10348      2.11961      2.06308         0.000456     -0.003517      0.078585
O	      4.17439      4.17366      2.03516        -0.003023     -0.020741     -0.079060
O	      4.38090      2.08056      4.36999         0.036804     -0.007432      0.021425
O	      6.44836      4.06722      4.16680         0.003410     -0.038312      0.002319
O	      6.51464      2.08900      6.17635        -0.029108     -0.022834     -0.086954
O	      8.61055      4.20784      6.35660         0.027500      0.079378      0.040685
O	      2.15161      4.11586      4.14275         0.003009     -0.141480      0.047713
O	      4.30258      6.18399      4.30721         0.134548     -0.005015     -0.068009
O	      4.24872      4.10583      6.35565         0.001185     -0.171451      0.030307
O	      6.32963      6.22945      6.31639         0.047667     -0.001579     -0.032878
O	      6.51561      4.23357      8.45616        -0.013936     -0.125085     -0.006013
O	      8.49672      6.21351      8.33399        -0.003978      0.068008     -0.050289
O	      2.19572      6.22128      6.29918        -0.103936     -0.050132      0.078692
O	      4.14778      8.22913      6.26210         0.083718      0.090479     -0.009065
O	      4.37188      6.19797      8.32035        -0.092765     -0.007003      0.124672
O	      6.40123      8.22260      8.61059        -0.015555      0.059030      0.077680
O	      6.48080      6.34713     10.50159        -0.063039      0.105791      0.031337
O	      8.39254      8.26322     10.60717        -0.108594      0.115583     -0.065426
