# total energy = -233.19486777 eV
 
CRYSTAL
PRIMVEC
-0.026649 6.505354 6.238665 
6.293210 -0.018148 6.231904 
4.189618 4.326823 -0.007219 
PRIMCOORD
36 1
Li	      6.24981      0.03371      6.19814        -0.043238      0.006921      0.013447
Li	      6.27568     10.76666      8.31770        -0.009966      0.019791     -0.015515
Li	      4.25377      8.60607      8.30714        -0.025215     -0.034451     -0.010394
Li	      4.23741      6.41194     10.33550         0.041246     -0.055782     -0.055917
Li	      8.44892      6.41798      6.24419        -0.020892     -0.050935      0.006422
Li	      6.30869      4.22515      6.26762         0.000034     -0.041674      0.028893
Li	      6.22278      4.38925     10.35165         0.008793      0.023550     -0.000693
Li	      8.31058      6.55046     10.36845        -0.026943      0.054173     -0.015570
Li	      8.36382      8.68389      8.38055         0.029615      0.049902     -0.042562
Sc	      8.39174      8.66416     12.43366         0.089136      0.028786      0.106679
Sc	      6.37365      6.37058      4.14763        -0.025510      0.029902      0.002723
Mn	      8.35036      4.32164      8.29206         0.009426     -0.039221      0.133110
Mn	      6.30270      6.51099      8.32541         0.072043     -0.027133     -0.165169
Fe	      6.28518      8.64692     10.34906        -0.156186      0.113556     -0.047822
Fe	     10.34648      6.51901      8.26712         0.059568     -0.018681      0.100027
Fe	      4.20653      4.30678      4.15895        -0.119881      0.050828      0.011570
Fe	      6.22572      8.77223      6.29793        -0.045767     -0.056107     -0.114989
Fe	      4.15043      6.48007      6.29849         0.088921      0.003523     -0.189212
O	      1.99897      2.07832      2.10031        -0.064034     -0.020282      0.003962
O	      4.02660      4.47059      2.13841        -0.079519      0.024931     -0.008582
O	      4.23076      2.27000      4.14887         0.082501     -0.073112      0.022942
O	      6.21676      4.29785      4.16915         0.082826     -0.097327      0.006936
O	      6.29603      2.12839      6.23802         0.034626     -0.033912     -0.033684
O	      8.39875      4.22710      6.37001        -0.011418     -0.034767     -0.044373
O	      2.12606      4.23548      4.13696         0.030378     -0.043725     -0.038521
O	      4.22365      6.39286      4.15761         0.076352     -0.024603     -0.021338
O	      4.06832      4.44880      6.16260         0.017017      0.008848      0.023233
O	      6.24844      6.59649      6.27868        -0.014096      0.033757      0.088681
O	      6.38373      4.19332      8.33135         0.041026      0.005238     -0.007272
O	      8.34201      6.51947      8.30455        -0.144478      0.027261      0.014020
O	      2.13477      6.45995      6.23665        -0.042054      0.128556     -0.013921
O	      4.21642      8.56743      6.19461        -0.087280     -0.013229     -0.011675
O	      4.35129      6.47053      8.23101         0.046350      0.046239      0.221109
O	      6.24778      8.73925      8.28450         0.053615     -0.006860      0.106568
O	      6.25918      6.62945     10.25243        -0.054664     -0.015366      0.014468
O	      8.24819      8.69623     10.42553         0.107670      0.031402     -0.067581
