# total energy = -92.74223852 eV
 
CRYSTAL
PRIMVEC
2.109943 4.314196 2.082527 
4.146989 -2.125878 -2.070825 
0.005655 4.335903 -4.213196 
PRIMCOORD
16 1
Li	      2.13349      2.30782     -0.09171        -0.011458      0.155810     -0.116291
Li	      2.13831      0.15397     -2.13425        -0.251250      0.104045     -0.005206
Li	      4.23084      2.25740     -2.09313        -0.107491      0.100563     -0.010808
Li	      2.19556      4.31693     -2.08203         0.093197     -0.281327     -0.013486
Mn	      0.05684      0.10168     -0.01099         0.763245     -0.910783     -1.792720
Mn	      2.11157      2.22157     -4.24795         0.080245      0.830448      1.262913
Ni	      0.02027      2.17800     -2.10155         0.807468     -0.099611     -0.005629
Ni	      4.23097      4.45271     -4.29373        -0.225965     -0.274389      0.420396
O	      4.27013      4.62598     -2.19071        -0.479558     -0.060063     -0.256450
O	      4.13567      2.26877     -4.36068        -0.497573      0.295251      0.634276
O	      4.36182      2.15941      0.09463        -0.249811      0.151602     -0.282493
O	      4.27804     -0.19022     -2.09651        -0.214091      0.987156      0.225421
O	      2.09366      4.43142      0.12354        -0.179886     -0.132463      0.235672
O	      2.14284      2.22473     -2.28147         0.020286      0.172104     -0.660524
O	      2.23674      6.75759     -2.15487         0.310222     -0.524142      0.043126
O	      2.03960      4.26783     -4.28678         0.142419     -0.514201      0.321803
