# total energy = -220.65720190 eV
 
CRYSTAL
PRIMVEC
0.090491 6.238812 6.231126 
6.337724 0.054999 6.265125 
4.243134 4.199680 0.019347 
PRIMCOORD
36 1
Li	      2.09741      0.02510      2.07166         0.027123     -0.000310     -0.037860
Li	      4.24045      2.18131      2.05104         0.072024      0.036025      0.052771
Li	      2.14870      4.15378      2.15219        -0.016739     -0.004074     -0.217933
Li	      4.12352      4.21096      4.22210         0.149224     -0.027252      0.012593
Li	      8.29690      6.37275      6.29556        -0.002297     -0.022673      0.032927
Li	      6.27046      4.39066      6.30198        -0.022570     -0.023361     -0.046179
Li	      0.22126      4.14684      4.15401        -0.128461     -0.008248     -0.006370
Li	      6.45439      8.29270      6.22245        -0.018130      0.036288      0.154143
Li	      6.42750      6.30792      8.09872        -0.027788      0.068521     -0.018697
Sc	      4.21755      0.05726      4.16108         0.118206      0.120630      0.022206
Sc	      6.26570      2.23573      4.17610        -0.203156      0.060542      0.042275
Mn	      4.37820     10.36299      6.30363        -0.051109      0.100492      0.063629
Mn	      4.26599      6.26214      2.11980         0.051539     -0.021628     -0.079105
Mn	      4.28789      4.16450      8.26511        -0.042203     -0.007375     -0.230213
Co	      2.18454      6.21354      4.15858         0.047158     -1.893316      0.068350
Ni	      2.17664      2.09550      0.09672        -0.042136      0.044798      0.048352
Ni	      2.16827      2.17694      4.19849        -0.129480     -0.173667     -0.197655
Ni	      4.35571      6.26568      6.26312        -0.134208      0.066605     -0.060692
O	      1.91368      2.10344      2.14436        -0.005493      0.011233     -0.069279
O	      4.29185      4.29762      1.96013        -0.067248      0.002061      0.140366
O	      4.24946      2.10202      4.08756         0.134003      0.042793      0.021155
O	      6.43746      4.22726      4.25159        -0.022619     -0.106009     -0.004274
O	      6.41555      1.98408      6.37232        -0.063118     -0.040941      0.000090
O	      8.69818      4.20344      6.26959         0.036600      0.078383      0.007070
O	      2.17141      4.30405      4.11090        -0.111242      0.394543      0.018701
O	      4.14225      6.24925      4.06520         1.144600      0.181267     -0.123942
O	      4.27448      4.20344      6.41263        -0.049632     -0.074156     -0.035763
O	      6.33583      6.32039      6.17738         0.111700      0.017163      0.272125
O	      6.22831      4.03323      8.31352         0.059619      0.002472      0.041556
O	      8.60769      6.39602      8.44438         0.069976      0.361184     -1.014695
O	      2.14035      6.28348      6.09853        -0.119302      0.117429      1.138377
O	      4.28664      8.44015      6.32508         0.217810      0.112653     -0.078667
O	      4.35129      6.09732      8.32099         0.015762     -0.036588      0.106212
O	      6.61565      8.34641      8.40086        -0.001190      0.021707     -0.009927
O	      6.51016      6.30245     10.57472        -0.945520      0.188166      0.125532
O	      8.51719      8.33001     10.37137        -0.051703      0.374640     -0.137178
