# total energy = -225.32807746 eV
 
CRYSTAL
PRIMVEC
0.051424 6.316305 6.188797 
6.355943 0.049927 6.190656 
4.260463 4.235326 0.009634 
PRIMCOORD
36 1
Li	     10.55024      4.28588      6.20208        -0.066449      0.013287     -0.006897
Li	      2.27595      8.44859      6.22169         0.070307      0.081785     -0.007384
Li	      4.14384      2.14564      2.02452        -0.046656      0.073376     -0.011155
Li	      6.41943      2.16391      8.17658         0.036526      0.100497     -0.065999
Li	      6.35097      6.35247      4.11750        -0.057767      0.038774      0.005538
Li	      6.40727      4.29100      6.22695         0.073611      0.002630      0.161461
Li	     10.62536      8.51156     10.34017         0.035394      0.024612     -0.117771
Li	      4.36498      4.30066      8.23513         0.067775      0.056542     -0.012293
Li	      6.39078      6.23791      8.23874         0.007963     -0.196613      0.017552
Sc	      8.52417      6.43051     10.22841         0.027318     -0.095714     -0.191263
Sc	      6.33546      8.38769      6.29670        -0.108914     -0.151386     -0.038242
Mn	      2.13498      0.14160      2.03687        -0.270532     -0.027609      0.124002
Mn	      6.34444      2.16741      4.17444        -0.000914     -0.093423      0.027292
Mn	      4.27288      4.23545      4.13517        -0.090444     -0.114272      0.007259
Co	      8.32971      4.20122      8.16734         1.151150      0.043511      0.231086
Co	      8.53954      6.36323      6.21656        -0.026165     -0.192191      0.109489
Co	      4.33844      6.36588      6.25658        -0.013656      0.018465      0.008140
Cu	      4.35734      6.29400     10.32556         0.056753      0.022685      0.180392
O	      6.54144      4.22037      8.34318        -0.627869     -0.028975     -0.005581
O	      2.13747      2.07799      2.04266        -0.041537     -0.231420     -0.026178
O	      4.29437      4.23754      2.22750         0.094773     -0.042361     -0.050455
O	      4.36886      2.23665      4.24460         0.041103      0.029340      0.063673
O	      6.21105      4.13055      4.19436         0.032013      0.082379     -0.396781
O	      6.21683      2.14169      6.05828        -0.075799     -0.023747     -0.091420
O	      8.52752      4.42166      6.17643        -0.040776      0.137072     -0.254383
O	      2.32151      4.22695      4.09417        -0.116637      0.093633      0.154114
O	      4.27716      6.14137      4.18914        -0.027764      0.121083      0.064320
O	      4.25310      4.14934      6.11383        -0.010121      0.008539     -0.072604
O	      6.51716      6.36222      6.21661         0.066686      0.050610      0.012693
O	      8.55705      6.28460      8.14649        -0.150403     -0.045738     -0.067437
O	      2.18713      6.27203      6.12551        -0.003630      0.102527      0.383771
O	      4.33671      8.39159      6.10547         0.063947     -0.053903      0.041208
O	      4.19166      6.36516      8.33938        -0.062490      0.069225     -0.214162
O	      6.40736      8.67128      8.36501         0.010160      0.027837      0.021726
O	      6.43065      6.56984     10.25188         0.063137      0.183358      0.034526
O	      8.32882      8.50383     10.34545        -0.060097     -0.084414     -0.018237
