# total energy = -225.43442874 eV
 
CRYSTAL
PRIMVEC
0.030932 6.275292 6.440716 
6.118165 0.012696 6.459564 
4.082921 4.200467 0.003828 
PRIMCOORD
36 1
Li	      0.02413      0.03289      0.01604        -0.031177      0.004714      0.040845
Li	      6.21222      8.31821     10.85288         0.013499     -0.008184      0.009660
Li	     10.13710      6.31664      8.66809        -0.000802     -0.001433      0.069637
Li	      4.05643      4.24938      4.36787        -0.054840      0.016865     -0.016198
Li	      4.13228      2.20282      6.47259         0.011982     -0.059380      0.018237
Li	      4.11614      8.28088      4.33354         0.010299     -0.034088      0.074431
Li	      8.20573      6.38464     10.76395         0.051069      0.022785      0.012000
Li	      4.11072      6.28804      6.32126        -0.008367      0.067370     -0.062583
Li	      4.15241      4.11640      8.53683         0.000940     -0.008005     -0.020930
Sc	      6.02259      4.15704      2.14504         0.079337      0.019316     -0.026329
Sc	      4.18403      6.28813     10.78083         0.054282     -0.047447      0.174336
Mn	      8.17003      8.36157     12.85944         0.138964     -0.059008     -0.119732
Mn	      2.07275      4.22423      2.17283        -0.243882      0.162244      0.004757
Mn	      6.17207      6.30655      8.59594         0.190902     -0.038505     -0.217178
Co	      4.05364      2.10344      2.15406         0.271915      0.037036      0.081837
Co	      6.05908      6.32215      4.33711        -0.168860     -0.065094     -0.194697
Co	      2.15498      4.15526      6.38735        -0.083270     -0.058260     -0.057992
Ni	      6.04839      4.19071      6.43356         0.018252     -0.012796     -0.118001
O	      1.98696      2.14166      1.96977        -0.308024     -0.048438     -0.015564
O	      3.97682      4.21171      2.16285         0.178551      0.024911      0.021584
O	      3.92591      2.09177      4.16699        -0.175316     -0.136761      0.681799
O	      6.10661      4.32156      4.27277         0.055484      0.114244     -0.146899
O	      6.22898      2.14985      6.42169         0.032240     -0.079736     -0.066483
O	      8.16696      4.04870      6.42582         0.071610     -0.013021     -0.009675
O	      2.00927      4.01684      4.40431         0.076588     -0.085381      0.018384
O	      4.23762      6.29410      4.27429         0.054505      0.036537      0.113446
O	      3.98488      4.19512      6.46657        -0.251193      0.036503     -0.055901
O	      6.14671      6.29281      6.60522        -0.007167      0.196328      0.216719
O	      6.24031      4.36808      8.52588         0.019490      0.028582      0.158947
O	      8.09371      6.22369      8.59097        -0.103404     -0.088932      0.013935
O	      2.05514      6.37556      6.50089        -0.025485      0.057804      0.049491
O	      4.12224      8.39160      6.61832        -0.012977     -0.009135     -0.837900
O	      4.17305      6.22969      8.65859        -0.010746     -0.046783      0.073383
O	      6.17511      8.30448      8.53712         0.182745      0.032277      0.041624
O	      6.18515      6.33573     10.50610        -0.011767     -0.010322     -0.012609
O	      8.23472      8.40000     10.96467        -0.015379      0.053193      0.103619
