# total energy = -216.45456972 eV
 
CRYSTAL
PRIMVEC
0.008713 6.376946 6.378025 
6.182539 0.048315 6.338207 
4.129047 4.231712 0.025196 
PRIMCOORD
36 1
Li	     10.22775     10.62356     12.67497         0.098618      0.038613      0.026718
Li	      4.09863      2.21769      2.12128        -0.001380      0.090456      0.055688
Li	      4.19644      0.06475      4.29865        -0.014479      0.054508     -0.043117
Li	      8.32575      4.28365      8.32201         0.024062     -0.004003      0.034324
Li	      8.19892      6.30784      6.28029        -0.082937      0.060755     -0.002378
Li	      6.30204      4.26757      6.36049        -0.029597      0.039336     -0.004723
Li	      6.13335      4.40329     10.58704         0.005098      0.019934     -0.065094
Li	      4.18345      6.40281      6.39064        -0.005905     -0.048205      0.031074
Li	      6.12939      6.29289      8.54864        -0.014368      0.006251      0.005088
Sc	      2.12856      6.37572      8.49217         0.003153     -0.034337      0.015796
Sc	      6.16025      2.22876      8.36802        -0.006890     -0.033277      0.159802
Mn	      6.22507      6.35844      4.32019         0.033133     -0.001061     -0.121935
Mn	      8.20137      6.43113     10.62799        -0.178966      0.075520     -0.060730
Mn	      6.12838      8.47606      6.37147         0.267407     -0.098471      0.126084
Cu	      8.34811      2.34805      6.28432         0.078564     -0.051984     -0.020042
Ni	      6.15035      2.11412      4.35383        -0.071459     -0.016046     -0.184950
Ni	      4.13077      4.24691      4.28626        -0.042656     -0.045794      0.093877
Ni	      4.14047      4.27330      8.43548        -0.251166      0.015360     -0.095867
O	      8.27520      4.25262      6.38200         0.052782     -0.092009     -0.038306
O	      2.07146      2.10746      2.35219         0.001373      0.010492     -0.043415
O	      4.15366      4.29593      2.26061         0.031490      0.060545     -0.306735
O	      4.08666      2.21345      4.25137        -0.117020     -0.208567     -0.004657
O	      6.17162      4.21757      4.23802         0.142353      0.030546      0.030454
O	      6.33998      2.16107      6.35101         0.183171      0.066990     -0.000058
O	      2.03189      4.37626      4.39785        -0.120212      0.070215     -0.053402
O	      4.09454      6.30905      4.24464        -0.030889      0.174838      0.020330
O	      3.93945      4.23711      6.33574        -0.020526     -0.011579      0.107846
O	      6.17168      6.55483      6.21097        -0.038299     -0.031997      0.061672
O	      6.02040      4.28613      8.42613         0.284270     -0.103189      0.023451
O	      8.22311      6.49028      8.67341         0.082606     -0.054343      0.022300
O	      2.06545      6.26936      6.27811        -0.007639      0.040059      0.000894
O	      4.20300      8.48149      6.45556        -0.397415      0.054134     -0.006049
O	      4.14982      6.19189      8.50415        -0.057525      0.064663     -0.045377
O	      6.29746      8.49696      8.33498        -0.100498      0.035546     -0.001510
O	      6.32116      6.46890     10.61402         0.155969     -0.082992      0.030649
O	      8.21413      8.35074     10.53516         0.145776     -0.090906      0.252300
