# total energy = -218.53640450 eV
 
CRYSTAL
PRIMVEC
0.037173 6.243821 6.423009 
6.234203 0.042858 6.418173 
4.159550 4.162335 0.025937 
PRIMCOORD
36 1
Li	      4.17910      4.12955      0.12351         0.008884      0.018964      0.028752
Li	      2.26548      8.29542      6.42937         0.032999     -0.026277      0.038288
Li	      2.16804      6.32737      8.48457         0.010079     -0.009525     -0.033025
Li	      4.12005      8.34688      8.47301         0.019731     -0.034360     -0.001931
Li	      6.32423      2.10844      4.45068         0.029682      0.019739      0.063760
Li	      2.14198      2.04273      4.12061         0.009440     -0.048734     -0.096315
Li	      6.27799      4.19260      6.39084        -0.004342      0.008015     -0.045973
Li	      4.12501      6.29906      6.37143         0.043414     -0.008289      0.010921
Li	      8.26278      8.42760      8.62890         0.004744      0.008456      0.057050
Sc	      6.27453      2.17565      8.51721        -0.000631     -0.011380     -0.143749
Sc	      4.28380      4.04876      4.24319         0.076781     -0.075755     -0.044931
Mn	      4.11433      0.07575      4.26033        -0.040614     -0.033414      0.035241
Mn	      6.22091      8.31636      6.45599        -0.028741     -0.017617      0.030457
Mn	      6.23412      6.30518      8.62341        -0.236208      0.017398     -0.048989
Cu	      8.30686      6.27556      6.44023        -0.055799      0.007245     -0.084172
Cu	      2.09046      6.27497      4.40363        -0.073219      0.063483      0.041401
Ni	      8.33314      4.18688      8.53334         0.023266     -0.009774     -0.033865
Ni	      4.17362      8.29333      4.36416        -0.004718      0.034824      0.012493
O	      2.12083      6.06774      6.34110         0.032786     -0.101287      0.082981
O	      8.37132      8.56437     10.84254        -0.082593      0.002122      0.064729
O	      2.01801      2.14952      1.98519         0.043487     -0.119319     -0.009209
O	      4.11345      4.22243      2.19765         0.080868      0.063620     -0.007396
O	      4.15680      2.00458      4.13336        -0.006607      0.126117     -0.007278
O	      6.34931      4.18974      4.28403        -0.166827      0.038740     -0.084908
O	      6.00703      2.14965      6.46746         0.137052      0.038790     -0.034051
O	      8.32032      4.40320      6.30829         0.007034     -0.130857     -0.025810
O	      2.10515      4.04093      4.45343         0.086966     -0.089482     -0.023476
O	      4.16073      6.20184      4.26880         0.077152     -0.086703      0.036021
O	      4.06497      4.02048      6.40985        -0.025702      0.116648      0.005911
O	      6.36970      6.31894      6.66320        -0.104954     -0.012418      0.004081
O	      6.29140      4.33182      8.62571        -0.114938      0.082089     -0.007475
O	      8.19224      6.27389      8.86485         0.001629      0.124995      0.039678
O	      4.34930      8.28424      6.39066         0.017090      0.014168      0.158898
O	      4.31425      6.24136      8.71824         0.081776     -0.006201     -0.043887
O	      6.24813      8.22545      8.37579         0.050138     -0.053930      0.064803
O	      6.15285      6.30829     10.55841         0.070895      0.089907      0.000974
