# total energy = -216.70527997 eV
 
CRYSTAL
PRIMVEC
0.013253 6.323754 6.290865 
6.115144 -0.003577 6.307745 
4.094351 4.244223 -0.019154 
PRIMCOORD
36 1
Li	      2.04896      8.36193      6.34819        -0.019070     -0.002405     -0.066047
Li	      2.04741      6.34329      8.36260         0.015379     -0.017099      0.060015
Li	      4.16372      8.42267      8.32120         0.076366     -0.022933      0.009031
Li	      6.19318      8.41047     10.44545         0.019946      0.044833      0.009504
Li	      2.06035      2.11071      4.19206         0.004675     -0.055835      0.029574
Li	      6.10933      4.31399      6.27863         0.009193      0.034088     -0.059129
Li	      4.12766      8.46781      4.26224        -0.012929     -0.001751      0.071063
Li	      6.08715      8.44899      6.33623        -0.004910     -0.038848      0.009787
Li	      6.11532      6.47118      8.31007        -0.010742      0.068128     -0.005956
Sc	      1.95485      4.12800      2.09075         0.013654      0.071853     -0.044985
Sc	      4.17338      4.12292      4.19603         0.137195     -0.061722      0.050943
Mn	      4.05753      0.02627      4.19271        -0.048739      0.004602     -0.061819
Mn	      4.14493      6.43593      6.28005         0.046789     -0.086140      0.265544
Mn	      4.04314      4.26056      8.40035        -0.119320      0.144501      0.016613
Cu	      0.06611      6.32043      6.28817        -0.092453     -0.191906      0.027613
Cu	      6.13198      2.12512      8.37937        -0.031590      0.048071     -0.134076
Cu	      1.99557      6.33554      4.24621        -0.024535      0.008697     -0.059567
Ni	      8.12709      6.35757      6.25687        -0.154178      0.042937     -0.044721
O	      6.03509      1.97907      6.29539         0.191553      0.116603      0.292737
O	      2.07288      6.35950      6.19959         0.146746     -0.043281      0.052392
O	      6.09699      6.31510     10.63005         0.079969     -0.010917     -0.211307
O	      1.93654      2.14121      2.07481         0.037256     -0.084656     -0.006270
O	      4.07751      4.23484      2.06675         0.004214     -0.002225      0.060289
O	      4.09402      2.00875      4.21893         0.000263      0.164118     -0.153695
O	      6.24848      4.24545      4.21796        -0.171021      0.024218     -0.075885
O	      8.23077      4.25566      6.16081        -0.142716     -0.073800      0.132293
O	      2.12576      4.16434      4.09090        -0.057622     -0.049328     -0.017321
O	      4.01596      6.30563      4.37270         0.029894     -0.007277     -0.260646
O	      4.09278      4.29856      6.37423        -0.009325     -0.014307      0.037209
O	      6.02584      6.35339      6.30409         0.034753     -0.005736      0.022324
O	      6.03095      4.18636      8.36026         0.021870      0.027417      0.042601
O	      8.21730      6.49457      8.42678         0.004773      0.023450      0.087887
O	      4.08799      8.29574      6.32423        -0.028408      0.092985      0.015741
O	      4.10968      6.21724      8.44628         0.012599     -0.051104     -0.090726
O	      6.31205      8.46038      8.38079         0.043802      0.014105      0.016393
O	      8.20591      8.66836     10.29345        -0.003332     -0.109336     -0.017405
