# total energy = -92.51185129 eV
 
CRYSTAL
PRIMVEC
2.120286 4.335344 2.092735 
4.167317 -2.136299 -2.080976 
0.005683 4.357157 -4.233849 
PRIMCOORD
16 1
Li	      2.15446      2.33051     -0.09261        -0.018250      0.178716     -0.139225
Li	      2.16972      0.17673     -2.14496        -0.307907      0.132917     -0.007932
Li	      4.27242      2.27958     -2.11370        -0.123663      0.118835     -0.014705
Li	      2.21713      4.35936     -2.10249         0.111676     -0.342229     -0.018648
Mn	      0.06779      0.12393     -0.00083         0.929063     -1.169945     -2.236802
Mn	      2.13232      2.24341     -4.28970         0.076776      1.005035      1.546500
Ni	      0.02046      2.19940     -2.12221         0.984136     -0.141141     -0.010819
Ni	      4.27256      4.49646     -4.33593        -0.248681     -0.310296      0.509617
O	      4.31210      4.67144     -2.21224        -0.564852     -0.093596     -0.321060
O	      4.17631      2.29107     -4.40354        -0.573915      0.359508      0.853006
O	      4.40469      2.18064      0.09556        -0.308598      0.161594     -0.381207
O	      4.32008     -0.19209     -2.11712        -0.263957      1.286798      0.285790
O	      2.11424      4.47498      0.12475        -0.236821     -0.128831      0.242935
O	      2.16390      2.24660     -2.30390         0.007708      0.202151     -0.766600
O	      2.25872      6.82401     -2.17605         0.341279     -0.663446      0.064295
O	      2.05965      4.30978     -4.32890         0.196006     -0.596070      0.394854
