# total energy = -216.67301944 eV
 
CRYSTAL
PRIMVEC
0.035645 6.300594 6.299410 
6.277677 0.046868 6.287094 
4.226421 4.233748 -0.009982 
PRIMCOORD
36 1
Li	      4.15569      2.13447      2.05216        -0.015214     -0.024147     -0.088872
Li	      8.41577      4.26456      4.19538         0.016086     -0.021718     -0.005341
Li	      4.25911      6.27899      2.14106         0.049672     -0.001309      0.003584
Li	      8.36482      4.35308      8.49137        -0.017106     -0.007521     -0.027258
Li	      4.09176      4.27261      4.15188         0.020381      0.047196      0.026586
Li	      0.12746      4.21306      4.23047        -0.033072     -0.003481      0.017396
Li	      2.13678      6.20115      4.11546        -0.049130      0.078486      0.027928
Li	      2.07902      4.19926      6.21163        -0.009403      0.002026      0.021088
Li	      6.39235      6.28613      8.39822        -0.026449     -0.029462     -0.056693
Sc	      6.21696      2.12834      4.13200        -0.004686     -0.100744      0.044491
Sc	      8.48603      8.40899      8.43107         0.135339      0.171901     -0.192098
Mn	      4.26201     10.45771      6.31553         0.188075      0.017831      0.053671
Mn	      6.36477      4.26767      6.31162        -0.095180      0.142332     -0.105449
Mn	      4.22294      6.38927      6.24467        -0.205510     -0.074300      0.120399
Cu	      2.11107      2.19797      4.14836        -0.229511     -0.018868     -0.000153
Cu	      8.37761      6.35803      6.30559         0.127218      0.040196      0.034520
Cu	      8.45643      8.49144     12.57797        -0.073752     -0.210274      0.112042
Cu	      6.31283      4.26733      2.10164        -0.053575     -0.098471     -0.046139
O	      2.12318      4.13088      4.20129         0.031846     -0.281168     -0.035107
O	      4.29039      6.36501      4.34643         0.022361     -0.025476     -0.092145
O	      2.10354      1.99267      2.19386         0.022257      0.158340     -0.311610
O	      4.32858      4.21558      1.90685        -0.095932      0.031885      0.238905
O	      4.11540      2.13354      4.36701         0.220082      0.002212      0.081004
O	      6.33146      4.28798      4.26869         0.010924      0.225801      0.394955
O	      6.40174      2.27519      6.28261        -0.033556     -0.037238     -0.036772
O	      8.37182      4.21533      6.31944        -0.063717      0.023377     -0.007432
O	      4.38463      4.35061      6.26913         0.049496     -0.153923      0.056181
O	      6.21426      6.23638      6.27780         0.168199      0.008601     -0.005170
O	      6.32883      4.26481      8.18733        -0.082163      0.017854      0.134919
O	      8.40557      6.38970      8.22545         0.054301     -0.146510      0.071310
O	      2.16429      6.37533      6.36236         0.003595      0.041113     -0.540074
O	      4.16348      8.38634      6.28981         0.011486      0.115417      0.020223
O	      4.15890      6.33243      8.21528         0.037941     -0.011266      0.053048
O	      6.35299      8.51871      8.38915         0.035272     -0.076774      0.116248
O	      6.30174      6.37313     10.70128        -0.021713      0.147677     -0.290331
O	      8.36749      8.45123     10.41605        -0.094861      0.050405      0.212144
