# total energy = -215.89791847 eV
 
CRYSTAL
PRIMVEC
0.019160 6.248579 6.263767 
6.321737 0.019039 6.263950 
4.221358 4.172864 0.005695 
PRIMCOORD
36 1
Li	      8.41715      2.18182      6.28710         0.043063      0.154404      0.125872
Li	      4.26514      8.32582      8.34040        -0.084935      0.015105      0.031849
Li	      2.13646      4.13259      2.05947         0.000729     -0.046287     -0.132974
Li	      2.27874      2.05715      4.22079         0.035490     -0.059346      0.015643
Li	      4.15589      4.11115      4.28590        -0.004296     -0.067203     -0.026627
Li	      4.21789      2.10387      6.19922        -0.014259     -0.108002     -0.024101
Li	      6.32023      4.21956      6.23880         0.014533      0.049091      0.006078
Li	      6.39568      8.28154      6.26254         0.053423     -0.010580     -0.168523
Li	      4.22083      4.13847      8.26451         0.126531      0.013619     -0.109774
Sc	      6.32368     10.36092      8.38395        -0.040951      0.641726     -0.002067
Sc	      0.01990      4.19060      4.19581         0.192431     -0.090424     -0.029086
Mn	      6.33830      2.12528      8.25737         0.037046      0.011241      0.117659
Mn	      2.14070      6.24626      4.18224         0.142000     -0.159514     -0.030436
Mn	      4.29436      6.19754      6.30640        -0.002416     -0.034470     -0.000277
Ni	     10.47757      4.16856      6.31008        -0.103078     -0.108447      0.064970
Ni	      8.37495      4.23401      4.24606         0.120542     -0.176758     -0.150624
Ni	      6.29831      2.13719      4.20653        -0.357239      0.086973     -0.010119
Ni	      6.36666      6.32442      8.26169         0.044753     -0.317838     -0.047614
O	      1.89150      2.06691      2.11514        -0.076016     -0.100967      0.040788
O	      4.23129      4.31749      2.04950         0.075586      0.062282      0.180458
O	      4.29358      1.98698      4.19884         0.283689      0.738098     -0.238529
O	      6.40488      4.13626      4.14985        -0.297813     -0.230173     -0.117367
O	      6.28830      2.06211      6.37751         0.084331      0.101817      0.114786
O	      8.51516      4.20522      6.15457        -0.075962     -0.186320      0.549535
O	      2.08263      4.35800      4.17746        -0.040121      0.059466      0.039717
O	      4.08173      6.26094      4.20312        -0.054758      0.028777     -0.093299
O	      4.22106      4.36457      6.26171        -0.041296     -0.017903      0.062247
O	      6.17375      6.26818      6.26797        -0.041396      0.046483     -0.094264
O	      6.33744      4.05956      8.37025        -0.064728     -0.040872      0.051792
O	      8.51857      6.28208      8.51848         0.046113      0.057974      0.029834
O	      2.20200      6.25423      6.16573         0.039390      0.014116     -0.002460
O	      4.21808      8.25294      6.25598         0.039898     -0.124153      0.041135
O	      4.25249      6.26645      8.24735        -0.071841     -0.021232     -0.103993
O	      6.32522      8.32735      8.41739         0.065154     -0.140163      0.020831
O	      6.48084      6.30237     10.43098         0.060001      0.171172     -0.097198
O	      8.42975      8.28527     10.46412        -0.133597     -0.211694     -0.013863
