# total energy = -241.92172575 eV
 
CRYSTAL
PRIMVEC
-0.025495 6.430614 6.268305 
6.241227 -0.009341 6.252155 
4.166937 4.282190 -0.012350 
PRIMCOORD
36 1
Li	     10.34096      4.38249      6.30811         0.025184      0.087359     -0.006087
Li	      4.14155      2.25690      2.15367         0.026948      0.024686     -0.001394
Li	      6.09541      2.17247      4.27652        -0.036738      0.023734     -0.014015
Li	      4.14378      6.35475      2.07092         0.021531     -0.030121     -0.005461
Li	      4.16547      4.20405      4.13664         0.017488     -0.034883      0.020617
Li	      4.31399      2.13032      6.16190        -0.059751     -0.014849     -0.005451
Li	      6.21383      4.12579      6.26106        -0.011187      0.010157     -0.015607
Li	      4.15567      8.49838      4.15455         0.004635     -0.028874     -0.007200
Li	      8.37609      6.42494     10.34893         0.071095      0.018147      0.002110
Sc	      8.21676      2.20498      6.16777        -0.015968      0.037107     -0.057844
Sc	      4.15427      6.39284      6.14412         0.042842     -0.027538      0.017565
Mn	      6.11329      4.27068      2.12004         0.019190      0.007272      0.052138
V	      6.27874      6.40435      8.48896        -0.135485      0.028992     -0.174335
Cr	      2.13159      4.31436      2.08815         0.044355     -0.091712     -0.019818
Cr	      2.10552      2.14037      4.14494         0.056067     -0.017883      0.127632
Cr	      8.35799      8.49990      8.36712         0.108389      0.056421     -0.049888
Fe	      2.00891      4.28469      6.19282         0.053433     -0.005962      0.002844
Co	      4.16790      0.06020      4.21855        -0.035391     -0.023757      0.107156
O	      2.09059      2.26567      2.12986        -0.025979      0.042712     -0.053250
O	      4.16831      4.27981      2.08498         0.062232      0.027577      0.016556
O	      4.07719      2.05676      4.15256        -0.021343      0.020732     -0.049630
O	      6.21634      4.39362      4.00766         0.003010     -0.014672      0.042388
O	      6.27343      2.15822      6.23651         0.055254     -0.045114      0.025551
O	      8.33292      4.24822      6.33969         0.003228     -0.038802      0.050532
O	      2.09720      4.19886      4.17946        -0.024525      0.021865     -0.120379
O	      4.22830      6.42549      4.16886        -0.027638      0.009805     -0.002788
O	      4.06658      4.30481      6.35905         0.012665      0.009003      0.019746
O	      6.22079      6.51204      6.28534        -0.029091     -0.002965     -0.040636
O	      6.26450      4.45888      8.31545         0.022343      0.143003      0.057966
O	      8.22644      6.41077      8.36506        -0.137130     -0.002364      0.022920
O	      2.04243      6.39572      6.41149        -0.020033     -0.016084     -0.066896
O	      4.20824      8.49217      6.26818        -0.118725     -0.023248      0.021488
O	      4.14405      6.25677      8.34127         0.002051     -0.071149     -0.020193
O	      6.33271      8.45796      8.27029         0.034102     -0.085324      0.042771
O	      6.22955      6.46279     10.24211         0.007221      0.009318      0.103612
O	      8.34674      8.61057     10.37233         0.005720     -0.002588     -0.022716
