# total energy = -237.83441606 eV
 
CRYSTAL
PRIMVEC
0.011442 6.377236 6.241862 
6.322341 -0.006273 6.259227 
4.227837 4.276015 -0.017197 
PRIMCOORD
36 1
Li	      4.14388      2.19553      2.30340         0.011592      0.023648     -0.018376
Li	      4.12742      0.25968      4.19301        -0.039890      0.083366     -0.035671
Li	      6.08173      2.22186      4.23096        -0.067322      0.038675      0.006171
Li	      0.19242      2.06851      2.16636        -0.050868     -0.013085      0.043483
Li	      2.09939      4.11895      2.15207         0.016507     -0.026745     -0.035312
Li	      2.22448      2.16402      4.04399         0.116162     -0.075215      0.079188
Li	      4.24939      4.06633      4.13733         0.042435     -0.062312     -0.013635
Li	      4.21868      2.14449      6.03428        -0.041738      0.046968      0.022509
Li	      4.31749      8.38446      4.16793        -0.036403      0.024190     -0.012980
Sc	      2.28535      6.31257      4.13106        -0.004411     -0.032449     -0.054508
Sc	      8.47388      8.54004      8.40095        -0.023750     -0.047570      0.074191
Mn	      6.33598      8.44018      6.15628        -0.007573      0.017419     -0.010651
V	      6.30797      6.38089      8.42663         0.025884      0.035834      0.017297
Cr	      8.46506      8.51958     12.47008         0.032678      0.025800     -0.008981
Cr	      6.31365      4.36063      2.17269        -0.063241     -0.018931      0.019667
Cr	      6.33871      4.25523      6.14014         0.057799     -0.068233     -0.056480
Fe	     10.39755      4.33958      6.37856         0.073192      0.091644     -0.225698
Ni	      4.26176      6.39791      6.19381        -0.050252      0.061751     -0.032084
O	      4.19628      2.13840      4.18109        -0.026246      0.005956      0.020281
O	      2.13981      2.02353      1.96286         0.021270      0.031409      0.020089
O	      4.32094      4.32201      1.99506         0.009969     -0.006562      0.135571
O	      6.36068      4.22213      4.13829        -0.024687      0.009919      0.029146
O	      6.43385      2.13217      6.24400        -0.018924      0.086208      0.004806
O	      8.43605      4.15212      6.25727        -0.141798     -0.026899     -0.027987
O	      2.09511      4.26068      4.29986        -0.020929     -0.010565      0.096162
O	      4.23140      6.41655      4.18623         0.046560     -0.000121     -0.150476
O	      4.25351      4.30543      6.28183        -0.076647     -0.086723     -0.010085
O	      6.28962      6.32914      6.40671         0.119291     -0.043364     -0.024806
O	      6.31794      4.39479      8.20284         0.020006     -0.051029      0.011672
O	      8.27833      6.42696      8.36278         0.059347     -0.014325     -0.039342
O	      2.07185      6.43134      6.30012        -0.056952      0.050346     -0.001392
O	      4.23406      8.66573      6.17631         0.084734     -0.031195     -0.002287
O	      4.22558      6.35410      8.28042        -0.027226     -0.021009      0.082652
O	      6.35727      8.47534      8.13106        -0.004669      0.017753     -0.030341
O	      6.32207      6.40197     10.21925         0.003233      0.004436      0.099375
O	      8.47872      8.41261     10.43300         0.042866     -0.018994      0.028831
