# total energy = -244.52135532 eV
 
CRYSTAL
PRIMVEC
-0.032394 6.371906 6.258920 
6.402079 0.000047 6.227084 
4.261337 4.219556 0.006772 
PRIMCOORD
36 1
Li	      6.40280      0.02956      6.21837        -0.021782      0.010165      0.040734
Li	      6.31092      4.27296      2.11315        -0.018226     -0.000893      0.004694
Li	      4.38891      6.37556     10.41093        -0.002347     -0.015030      0.051105
Li	      6.39110      8.28459     10.46772        -0.001192      0.013344      0.054053
Li	     10.58937      6.30471      8.30887        -0.055519     -0.022901      0.010031
Li	      8.54071      4.30392      8.31928         0.023206      0.038069      0.005501
Li	      8.59298      6.26054      6.31628         0.016052     -0.033365     -0.000591
Li	      6.39571      4.41376     10.29272        -0.009086     -0.015947     -0.013056
Li	      8.29144      6.36878     10.33268        -0.007646     -0.008260     -0.027559
Sc	      4.27396      4.21379      4.06979         0.045271      0.011703     -0.036068
Sc	      4.19654      6.41635      6.20848        -0.003977     -0.002914     -0.049657
Mn	      6.45402      4.19316      6.26565         0.049388     -0.041392      0.007688
V	      8.44301      2.17255      6.14923        -0.106384      0.119593      0.014699
Cr	      4.27594      2.09601      2.11988         0.054296     -0.000941     -0.004429
Cr	      2.13127      2.13029      4.09997        -0.007264     -0.013613     -0.002656
Cr	      2.08117      4.30726      6.23616         0.018703     -0.012450     -0.012745
Cr	      8.48351      8.44268      8.45962         0.020711     -0.015898      0.037509
Co	      6.39423      6.36156      8.37907         0.019074     -0.018976      0.103237
O	      2.27653      2.07013      2.05940         0.045967     -0.005244      0.034037
O	      4.27317      4.08555      2.09558         0.020145     -0.026254      0.060422
O	      4.16946      2.11936      4.12129        -0.037125      0.039978     -0.066515
O	      6.34042      4.35124      4.20550        -0.034870      0.031627     -0.049399
O	      6.56065      2.06565      6.26413         0.042661     -0.021747      0.007936
O	      8.57734      3.99310      6.26305         0.026493     -0.083260     -0.015852
O	      2.14635      4.17587      4.24381         0.049774     -0.054609      0.029197
O	      4.38094      6.30822      4.15028         0.053647     -0.029817      0.039352
O	      4.12391      4.28833      6.34219        -0.117080      0.090717     -0.023170
O	      6.35882      6.47336      6.21258        -0.068123      0.095563      0.002418
O	      6.22645      4.39105      8.31064        -0.023136      0.091137      0.003555
O	      8.35604      6.46343      8.31855        -0.042489      0.026104      0.031343
O	      2.15409      6.40516      6.26041         0.049631     -0.062796     -0.001281
O	      4.27033      8.47487      6.33903         0.035808     -0.035234      0.027113
O	      4.38515      6.36229      8.32402        -0.000104      0.008020     -0.034709
O	      6.36323      8.37902      8.28154        -0.011688     -0.027399     -0.035427
O	      6.35786      6.36757     10.24719         0.012755     -0.034402     -0.166410
O	      8.50798      8.44336     10.48183        -0.015544      0.007323     -0.025100
