# total energy = -243.05759935 eV
 
CRYSTAL
PRIMVEC
-0.023334 6.320803 6.459831 
6.302738 -0.004932 6.441469 
4.184723 4.183893 0.014155 
PRIMCOORD
36 1
Li	      2.20902      6.13342      8.49974         0.039039     -0.018829     -0.043351
Li	      4.26183      8.37162      8.52700         0.006237     -0.021180     -0.017185
Li	      6.35872      8.37763     10.59721         0.001818      0.021005     -0.026573
Li	      8.36083      6.28665      6.48814        -0.016764      0.033796     -0.006771
Li	      4.09554      8.40267      4.40078         0.030430      0.006446      0.046368
Li	      8.37309      6.40281     10.80979         0.001656      0.013529      0.035845
Li	      6.20602      8.46150      6.56645         0.016247     -0.030672     -0.038053
Li	      4.10540      6.39983      6.57172         0.026191      0.009724      0.065130
Li	      8.26087      8.49832      8.78428         0.042366     -0.028228      0.095158
Sc	      6.31203      4.19929      6.48984        -0.057885      0.070057     -0.022265
Sc	      6.31212      6.42684      8.63104        -0.070946      0.108101     -0.029966
Mn	      6.26919      6.30234      4.32084        -0.001439      0.077099      0.033964
V	      4.14237      4.13298      4.33463        -0.108037     -0.002066      0.102192
Cr	      0.01022      6.28377      6.41202         0.005085     -0.036165     -0.009238
Cr	      2.10527      8.37096      6.43891         0.074189     -0.039430     -0.148993
Cr	      4.19098      6.29156     10.67430         0.035559      0.025664     -0.021137
Cr	     10.44711      6.27677      8.62243         0.019859      0.019347      0.057367
Cu	      2.06479      4.21101      2.20009        -0.048985      0.035069      0.039565
O	      1.98211      2.21764      2.03438        -0.066371     -0.055061      0.058450
O	      4.13816      4.25382      2.22899         0.100709      0.047731     -0.063626
O	      4.05327      2.13925      4.24670        -0.031097     -0.057780     -0.035866
O	      6.27518      4.29168      4.31060         0.012524      0.054734     -0.016677
O	      6.32465      2.03548      6.55678         0.042829      0.012884      0.047312
O	      8.43211      4.13220      6.27188         0.000663     -0.011207     -0.140651
O	      2.21575      4.05076      4.40168         0.034374     -0.116065      0.045088
O	      4.29061      6.17346      4.19531         0.003708     -0.022512     -0.049419
O	      4.26673      4.17606      6.14371        -0.016359     -0.032583     -0.060452
O	      6.29711      6.21173      6.54527        -0.002788     -0.083437     -0.022446
O	      6.31090      4.13149      8.56687        -0.097259     -0.085421      0.013545
O	      8.43821      6.19487      8.65750         0.049455      0.014010      0.024008
O	      1.98397      6.39227      6.43887        -0.044312      0.066719      0.038171
O	      4.08182      8.49748      6.46465        -0.041656      0.049760      0.000859
O	      4.22922      6.29959      8.70843         0.066383     -0.006969      0.021234
O	      6.31785      8.37373      8.60796        -0.006782     -0.074728     -0.020408
O	      6.19240      6.33744     10.82533        -0.034413      0.005972     -0.002544
O	      8.34318      8.50002     10.86333         0.035777      0.050688      0.051365
