# total energy = -246.21283809 eV
 
CRYSTAL
PRIMVEC
0.020555 6.289185 6.486976 
6.200087 0.005359 6.501161 
4.147230 4.216366 -0.010030 
PRIMCOORD
36 1
Li	      4.13989      4.20993      0.02208        -0.006499      0.049465      0.020725
Li	      2.12420      2.08311      0.09530        -0.025576     -0.010632      0.055252
Li	      4.12573      8.48707      8.50834         0.014113      0.015070     -0.031599
Li	      4.19751      6.24230     10.80804        -0.085509      0.016195     -0.071458
Li	      4.11330      6.22844      2.24211         0.016656      0.052157      0.084386
Li	      4.13279      4.30390      4.21006         0.015599      0.033537      0.003851
Li	      8.33881      6.25394      6.58117         0.055096     -0.026636      0.029228
Li	      2.13091      6.28976      4.32425        -0.002941      0.044930     -0.009723
Li	      4.05557      6.35966      6.47190         0.022501      0.017970     -0.027676
Sc	      2.07632      2.10306      4.28927         0.040008     -0.067060     -0.009346
Sc	      6.22656      4.19556      6.49037         0.097490     -0.132370     -0.088725
Mn	      6.15070      6.33528      8.64847        -0.047064      0.034733      0.062904
V	      6.11628      2.00811      4.42545         0.058252      0.053824      0.054931
Cr	      2.04060      0.03572      2.10466        -0.048366      0.060643      0.051535
Cr	      2.18853      4.24748      2.12608        -0.009750     -0.040613     -0.052560
Cr	      2.10192      4.24356      6.44929        -0.056749      0.023063     -0.003148
Cr	      8.29238      8.36367      8.64231         0.038399      0.001838      0.025600
Fe	      4.05684      8.39090      4.44581        -0.042105      0.136704     -0.067246
O	      2.12744      2.11132      2.21357        -0.068274      0.023015      0.039193
O	      4.14587      4.23474      2.21342         0.003041      0.012262     -0.059012
O	      4.32751      2.10856      4.26304        -0.092275     -0.053337      0.003213
O	      6.21412      4.18067      4.33133         0.019113      0.058657     -0.050241
O	      6.26281      2.12564      6.27146        -0.056994     -0.004871     -0.018775
O	      8.24986      4.20291      6.68525        -0.026183      0.013368      0.035278
O	      2.04142      4.21144      4.34797         0.042317      0.007681     -0.019743
O	      4.18880      6.43804      4.32028         0.069924     -0.080118     -0.011665
O	      4.12259      4.17008      6.63367        -0.020878      0.006907      0.014035
O	      6.25653      6.35081      6.38787        -0.010422      0.016922      0.019695
O	      6.20999      4.18039      8.67792         0.006868     -0.069708     -0.011485
O	      8.29352      6.28475      8.64883         0.007272      0.003492      0.031176
O	      2.08199      6.20561      6.63350        -0.002817     -0.038337      0.011294
O	      4.23503      8.42637      6.35300         0.061414     -0.014661      0.185156
O	      4.05532      6.15533      8.66879        -0.012358     -0.021071     -0.043771
O	      6.26406      8.47873      8.57270         0.034728      0.063336     -0.033931
O	      6.18910      6.35536     10.82102         0.005190     -0.150660     -0.015423
O	      8.19970      8.39709     10.68185         0.006781     -0.035696     -0.101920
