# total energy = -248.28381501 eV
 
CRYSTAL
PRIMVEC
-0.010447 6.323103 6.325324 
6.331700 -0.034592 6.349627 
4.203025 4.213363 -0.004843 
PRIMCOORD
36 1
Li	      4.20899      2.12040      2.14299        -0.021539      0.027687     -0.007091
Li	      2.01948      4.27015      2.30630         0.004602      0.006501      0.011231
Li	      2.09321      2.28451      4.24372        -0.000312     -0.005776     -0.025113
Li	      4.03118      4.21734      4.23655         0.030344     -0.001907     -0.037381
Li	      6.28065      4.26603      6.46134         0.026170      0.002619      0.019181
Li	      0.16334      4.23504      4.10176        -0.048858      0.029693      0.033184
Li	      2.06793      6.15973      4.14119        -0.038414      0.052383     -0.006899
Li	      4.28335      4.17185      8.41806         0.007759     -0.011883      0.009215
Li	      6.37693      6.17166      8.42695         0.018661     -0.026373      0.008169
Sc	      6.30977      4.16298      2.16550        -0.078044      0.048458      0.079358
Sc	     10.46143      6.41882      8.64189        -0.027749     -0.001198     -0.016000
Mn	      6.31593      8.37470     10.46999         0.159090     -0.007980      0.049508
V	      2.12951      8.45323      6.33754        -0.072167     -0.064701     -0.108371
Cr	      4.20023      4.20005      0.00882         0.016820     -0.058773     -0.042195
Cr	      4.24298      6.29366     10.49356         0.016269     -0.068928     -0.042922
Cr	      8.40264      6.31605      6.37962         0.033612     -0.040563     -0.028134
Cr	      2.10776      4.17220      6.26642        -0.103791      0.056931      0.036006
Cr	      4.28428      6.24396      6.27854        -0.049843      0.070386     -0.000011
O	      2.07140      2.07900      1.96368        -0.001925      0.008271      0.132738
O	      4.23062      4.22192      1.98638         0.030148      0.007999      0.036345
O	      4.34429      1.99637      4.32264        -0.039275      0.015461     -0.002102
O	      6.42939      4.03368      4.21817         0.026943     -0.007097     -0.015334
O	      6.31713      1.97227      6.41651        -0.121993      0.002617     -0.047697
O	      8.53242      4.22689      6.21093        -0.068257      0.048062      0.002423
O	      2.09018      4.21805      4.32743         0.015201      0.009860      0.033327
O	      4.22051      6.28640      4.32348         0.017924     -0.026754      0.023206
O	      4.11358      4.19801      6.30730         0.016511     -0.009356      0.029245
O	      6.31808      6.38428      6.29277        -0.004058     -0.020225      0.019852
O	      6.31571      4.15630      8.45695         0.009586     -0.002308      0.011156
O	      8.43169      6.29143      8.32913        -0.017533     -0.008197     -0.000083
O	      2.11983      6.30844      6.32125         0.017086     -0.078855     -0.007670
O	      4.15044      8.41622      6.27753         0.240217     -0.050153      0.030760
O	      4.18148      6.32804      8.42148         0.013075     -0.039504     -0.082268
O	      6.27106      8.45130      8.33124         0.018117      0.008951     -0.037249
O	      6.26492      6.41192     10.65578        -0.015717      0.012322     -0.041877
O	      8.28977      8.48337     10.68173        -0.008657      0.122327     -0.016507
