# total energy = -92.23282449 eV
 
CRYSTAL
PRIMVEC
2.130628 4.356492 2.102944 
4.187645 -2.146720 -2.091127 
0.005711 4.378412 -4.254502 
PRIMCOORD
16 1
Li	      2.17553      2.35330     -0.09352        -0.025681      0.198812     -0.161747
Li	      2.20134      0.19971     -2.15569        -0.362812      0.158332     -0.011201
Li	      4.31420      2.30188     -2.13437        -0.133006      0.138278     -0.015068
Li	      2.23882      4.40200     -2.12305         0.127989     -0.395010     -0.023491
Mn	      0.07885      0.14639      0.00942         1.081518     -1.447555     -2.685708
Mn	      2.15317      2.26535     -4.33165         0.064011      1.163161      1.820313
Ni	      0.02066      2.22091     -2.14296         1.151556     -0.182428     -0.017132
Ni	      4.31434      4.54044     -4.37834        -0.268350     -0.334283      0.587319
O	      4.35427      4.71713     -2.23388        -0.644467     -0.127296     -0.381862
O	      4.21716      2.31348     -4.44661        -0.626488      0.420437      1.092628
O	      4.44777      2.20196      0.09650        -0.368058      0.168499     -0.486601
O	      4.36233     -0.19397     -2.13782        -0.307010      1.604027      0.347715
O	      2.13492      4.51874      0.12597        -0.297846     -0.125833      0.234960
O	      2.18506      2.26857     -2.32643         0.000571      0.226570     -0.857029
O	      2.28081      6.89075     -2.19733         0.365578     -0.796226      0.086982
O	      2.07979      4.35193     -4.37124         0.242495     -0.669484      0.469921
