# total energy = -240.50457259 eV
 
CRYSTAL
PRIMVEC
-0.001835 6.391380 6.261724 
6.357941 -0.000567 6.260207 
4.233813 4.255119 0.004674 
PRIMCOORD
36 1
Li	      0.09137      6.38889      6.25637         0.016550      0.021652     -0.026061
Li	      2.17905      8.38399      6.23538         0.015089     -0.022736     -0.059670
Li	      6.33688      2.18562      4.23167        -0.019706      0.000076      0.007257
Li	      6.29154      6.41297      4.20184         0.029193     -0.024449      0.074733
Li	      4.25180      4.31240      4.22531         0.018858      0.016237      0.068225
Li	      6.28090      4.20581      6.23029        -0.022042      0.024353     -0.053233
Li	      4.31957      8.41858      4.34327        -0.015660      0.011971      0.015887
Li	      2.05450      4.31521      6.15608         0.030677     -0.028198      0.029733
Li	      4.16944      6.51468      6.11037         0.038138      0.050516     -0.011671
Sc	      4.20142      2.25483      1.98639         0.207526     -0.061712      0.107412
Sc	      8.42957      4.21685      4.32510         0.032588      0.024148     -0.011423
Mn	      4.28626      2.17211      6.19630         0.078112      0.059861      0.002207
Mn	      8.40968      8.49101      8.33815         0.191601     -0.040749     -0.040810
V	      6.33881      6.27570      8.32164        -0.398203      0.490521     -0.184166
Cr	      2.15154      6.39307      8.29507         0.065436     -0.197092      0.010225
Cr	      4.27833      6.35415      2.11002        -0.125670      0.040714      0.025746
Cr	      2.14513      6.34169      4.26440        -0.007854     -0.025940      0.014710
Cu	      2.10617      4.22292      2.12323        -0.019210     -0.056611      0.008282
O	      2.04271      2.03697      2.06001         0.044999      0.413305      0.009183
O	      4.42217      4.35549      2.08397        -0.088721     -0.090001     -0.011633
O	      4.23136      2.04364      4.14659         0.007239      0.017781     -0.183805
O	      6.43628      4.23598      4.04448        -0.010816     -0.015997     -0.044725
O	      6.23199      2.15459      6.38945        -0.061113      0.024893      0.011315
O	      8.47286      4.42002      6.34205         0.011166     -0.092016      0.194873
O	      2.12366      4.35108      4.08350         0.005990     -0.028512     -0.129070
O	      4.14379      6.38322      4.09131        -0.025123      0.036109     -0.027996
O	      4.24507      4.09564      6.40809        -0.012840     -0.013216      0.005923
O	      6.49268      6.38847      6.48994        -0.119459      0.032134      0.184504
O	      6.21187      4.36161      8.34859        -0.527502     -0.876988     -0.014557
O	      8.37791      6.30006      8.47055         0.833598      0.229770     -0.012385
O	      2.14627      6.38621      6.25259         0.020523      0.027819      0.113052
O	      4.21078      8.55106      6.31455        -0.032657      0.029213     -0.063427
O	      4.31372      6.44797      8.35786        -0.156052     -0.178784     -0.017788
O	      6.38910      8.52466      8.32673         0.094149      0.184807      0.012509
O	      6.40278      6.39914     10.22404        -0.083426      0.029899     -0.019516
O	      8.44466      8.45972     10.31542        -0.015378     -0.012775      0.016162
