# total energy = -243.66057170 eV
 
CRYSTAL
PRIMVEC
0.029626 6.314458 6.196919 
6.493507 -0.000220 6.226957 
4.324291 4.225052 0.004273 
PRIMCOORD
36 1
Li	      2.13276      2.14763      0.19789         0.009743     -0.031041     -0.055614
Li	      2.26411      6.47599      8.13812         0.010968     -0.048786      0.052441
Li	      4.12738      1.91182      2.09530         0.028364      0.068661     -0.039903
Li	      8.64609     10.49765     10.31070         0.011617     -0.038055      0.026720
Li	      0.15518      2.04429      1.99725        -0.010328      0.028261      0.034065
Li	      2.25472      4.14316      1.99431        -0.021406     -0.026984      0.007708
Li	      8.63928      6.21860      6.37476        -0.014416      0.033256     -0.022126
Li	      4.41235      6.34723      6.29725         0.037662     -0.014558      0.004694
Li	      6.42659      6.37416      8.25192         0.028017     -0.012817     -0.018944
Sc	      8.68386      6.31039     10.30609         0.033912     -0.048618     -0.060687
Sc	      4.34049      4.31956      8.19871        -0.053903     -0.057652     -0.069971
Mn	      4.36606      4.22415      4.03620        -0.010242      0.083759      0.100868
Mn	      6.44960      8.37093      6.35046         0.053419     -0.005298      0.081644
V	     10.80958      8.41865     10.32100         0.033655      0.000839     -0.083986
Cr	     10.73636      4.24103      6.31861        -0.014795      0.094110      0.045384
Cr	      2.21915      2.07871      4.07445         0.054926     -0.017319      0.118745
Cr	      6.64572      4.23817      6.25564        -0.072722     -0.018113      0.098192
Fe	      6.28470      2.11666      4.13758         0.117103     -0.001941     -0.044838
O	      2.17228      2.10868      2.17455        -0.019704     -0.045319     -0.113488
O	      4.32135      4.29581      2.13434        -0.049974     -0.038680     -0.054394
O	      4.30252      2.25522      4.09514        -0.116162     -0.013469     -0.010395
O	      6.54002      4.21405      4.26524         0.021889      0.038327     -0.064093
O	      6.50310      2.10373      6.08030         0.022213      0.014934      0.157879
O	      8.65404      4.21061      6.23641         0.045824      0.000019     -0.002154
O	      2.07275      4.14010      4.13436        -0.056676     -0.026099     -0.042231
O	      4.40035      6.37467      4.16041         0.037488     -0.024225     -0.001236
O	      4.46798      4.24787      6.06069         0.044442      0.014338     -0.021180
O	      6.55542      6.23609      6.13124         0.012210     -0.000035     -0.014557
O	      6.51027      4.24996      8.40862         0.010337     -0.017631     -0.011510
O	      8.67007      6.42374      8.33942        -0.020568     -0.078823      0.030911
O	      1.96542      6.26272      6.18761         0.030425      0.027235      0.003225
O	      4.32193      8.51661      5.98841        -0.051944     -0.025599      0.005324
O	      4.37451      6.28939      8.23632         0.009449      0.099379      0.037777
O	      6.59118      8.40818      8.45449        -0.024833      0.017026     -0.122367
O	      6.52735      6.30065     10.45469        -0.065579      0.013363     -0.015547
O	      8.84165      8.38843     10.31346        -0.050413      0.057555      0.063647
