# total energy = -241.65421300 eV
 
CRYSTAL
PRIMVEC
-0.003434 6.320655 6.163960 
6.519596 0.004608 6.155359 
4.344586 4.205290 0.005765 
PRIMCOORD
36 1
Li	      6.43717      0.13520      6.15168         0.004686     -0.037934      0.044179
Li	      8.49212      2.21436      6.11903        -0.074991     -0.004338      0.033176
Li	      6.50410      2.10145      4.28280        -0.017114      0.033178     -0.040540
Li	      6.56526      2.07175      8.12651         0.029611      0.019382      0.065788
Li	      2.24253      4.14423      1.99289         0.080628     -0.007372      0.007829
Li	      4.33440      4.24275      4.10662         0.034943      0.001748     -0.010903
Li	      6.65723      4.09002      6.11146        -0.015664      0.027924      0.057410
Li	      2.15504      4.21672      6.08266        -0.013713      0.001216      0.021833
Li	      4.27743      6.33759      6.06707        -0.072278      0.001744      0.017312
Sc	      2.09685      0.03786      1.95750        -0.010203      0.037588     -0.004271
Sc	      4.33347      8.49228      8.13270         0.007478      0.057001     -0.014367
Mn	      6.52015      6.35037      4.18244         0.030507      0.024535     -0.027470
Mn	      4.32568      8.39341      4.20109         0.001722     -0.033101      0.010443
V	      4.33364      4.21426      8.14238        -0.014919      0.018174      0.210684
Cr	      4.45858      2.03427      6.14934         0.040750     -0.002197     -0.003028
Cr	      2.18870      6.25773      4.17405        -0.025699      0.026644     -0.018389
Cr	      6.51063      6.30515      8.17993        -0.006236     -0.108010      0.018202
Ni	      8.65703      4.20524      4.20360         0.060843     -0.126212     -0.054144
O	      2.24971      2.09932      2.17000         0.040212     -0.000268      0.066057
O	      4.45491      4.14884      2.07748         0.025053      0.005998     -0.014151
O	      4.42075      2.06204      4.13607        -0.013914      0.122549     -0.031254
O	      6.58028      4.39959      4.08867        -0.089496      0.077923      0.012403
O	      6.40272      2.12655      6.20171         0.028062      0.003130     -0.022919
O	      8.71641      4.27447      6.16647        -0.025215      0.006195      0.186846
O	      2.19062      4.18175      4.08986         0.017398      0.005872      0.005391
O	      4.20909      6.43106      4.09977        -0.014451     -0.049915      0.022273
O	      4.37776      4.15022      6.36824        -0.021352     -0.000929     -0.219814
O	      6.68190      6.33093      6.15675         0.001701     -0.025037     -0.055373
O	      6.32919      4.30885      8.34472        -0.046519      0.049071     -0.047611
O	      8.53764      6.38902      8.23539        -0.082367      0.071703     -0.002184
O	      2.20779      6.31319      6.11372        -0.006424     -0.012103     -0.019344
O	      4.34362      8.37933      6.11978         0.070968      0.002004     -0.037231
O	      4.41966      6.24925      8.24156         0.032952     -0.054758     -0.095837
O	      6.57186      8.38174      8.20821        -0.011255     -0.051474     -0.002408
O	      6.60715      6.18330     10.19925         0.025096     -0.003281     -0.000208
O	      8.59243      8.34660     10.13353         0.029200     -0.076650     -0.058381
