# total energy = -247.69387531 eV
 
CRYSTAL
PRIMVEC
-0.018065 6.472965 6.232163 
6.486318 -0.036615 6.251269 
4.297621 4.300809 0.002474 
PRIMCOORD
36 1
Li	     10.47966      4.44363      6.18896        -0.047409      0.058235      0.024993
Li	      8.48849      2.32966      6.19766        -0.027195      0.004514      0.022983
Li	      8.73889     10.62377     10.51414        -0.076349     -0.040392     -0.046462
Li	      6.47220      2.02376      4.27070         0.009481      0.007092     -0.068670
Li	      6.33554      2.23280      8.13535         0.022111     -0.021426      0.022608
Li	      8.50617      4.42401      8.16758        -0.060496      0.020220      0.013222
Li	      8.81401      6.27958      6.39789        -0.034182      0.025847     -0.042435
Li	      8.77919      8.46291      8.41052        -0.007762      0.013671     -0.042516
Li	      6.53337      6.28756      8.40599        -0.017720     -0.013985     -0.032382
Sc	      8.54301      6.52088     10.28082        -0.014240     -0.049908      0.139978
Sc	      6.51409      8.50796      6.35781         0.024828      0.019416      0.088418
Mn	      4.31426      4.25755      4.10611         0.065620     -0.001230      0.020027
Mn	      4.31776      6.41990      6.29585        -0.006217      0.035912      0.093614
V	      2.18236      0.01423      2.11224         0.128799     -0.096069     -0.080334
Cr	      4.28334      2.15434      2.06890         0.081069      0.020697     -0.081255
Cr	      2.14598      2.15569      4.11673        -0.059076      0.017894      0.073402
Cr	      6.56493      4.18030      6.28861        -0.098300      0.153261     -0.085935
Cr	      6.44221      4.32085     10.34324         0.072148     -0.007806      0.055219
O	      2.26957      2.02997      2.14071         0.018296      0.065389     -0.008951
O	      4.44125      4.20531      2.16946        -0.216808      0.008369      0.192489
O	      4.12583      2.26739      4.05870         0.080141      0.203244      0.077301
O	      6.44714      4.45340      4.16756        -0.129324      0.055259      0.282557
O	      6.48672      2.24824      6.19819        -0.044397     -0.076611     -0.015173
O	      8.48758      4.31438      6.23719         0.079851      0.000662     -0.005782
O	      2.06993      4.23803      4.18899         0.028279      0.003756     -0.042546
O	      4.34613      6.46655      4.19504         0.009199     -0.142767      0.021436
O	      4.32526      4.28600      6.09403         0.065509     -0.102850     -0.187711
O	      6.27693      6.40341      6.18637         0.027465     -0.072571      0.022197
O	      6.45576      4.28402      8.32508        -0.008160     -0.018951      0.027621
O	      8.59327      6.45697      8.35607         0.021356     -0.035819     -0.040537
O	      2.38404      6.33728      6.31652         0.105384     -0.042030     -0.397483
O	      4.41741      8.56975      6.23725         0.022277      0.066935     -0.025283
O	      4.21848      6.60341      8.28406         0.107660      0.008107     -0.038258
O	      6.32529      8.73801      8.36606        -0.038904     -0.135164      0.046886
O	      6.52337      6.29832     10.44617        -0.052143      0.038069     -0.005142
O	      8.78015      8.52367     10.41047        -0.030791      0.031030      0.021905
