# total energy = -247.80695899 eV
 
CRYSTAL
PRIMVEC
0.008675 6.331842 6.257369 
6.485395 -0.006378 6.272211 
4.324261 4.231950 -0.004693 
PRIMCOORD
36 1
Li	      0.05593      6.34929      6.28268         0.052849     -0.009213     -0.043200
Li	      2.19981      8.38231      6.23174         0.017929     -0.021711     -0.014810
Li	      2.11033      6.34510      8.20369         0.002900      0.015810      0.017750
Li	      4.26295      6.26664      2.14726        -0.018844     -0.006704      0.030771
Li	      4.15985      4.34027      4.08650        -0.008273      0.006841      0.002133
Li	     10.73009      8.39630     10.44926         0.024126      0.044520      0.002691
Li	      2.29358      6.39456      4.10690         0.017431      0.000444      0.015709
Li	      4.46238      4.25237      8.43565         0.107940     -0.004820     -0.000128
Li	      6.50298      6.30412      8.42990         0.004942     -0.031984      0.017012
Sc	      6.34781      6.30319      4.09351         0.019574      0.023492     -0.067037
Sc	      8.67688      6.39565      6.36634         0.030791      0.040731     -0.017083
Mn	      4.41678      6.26248     10.39247        -0.001082      0.095546     -0.045957
Mn	      6.59120      8.40034     10.38200        -0.070304     -0.011425     -0.014674
Mn	      6.55229      4.16544      6.35030        -0.091134     -0.010380      0.109906
V	      2.14480      4.30987      6.27812         0.072571      0.072183     -0.010469
Cr	      4.29202      2.13856      2.06675        -0.055450     -0.045263      0.057765
Cr	      2.18480      4.24884      2.12309        -0.066619     -0.035363      0.069870
Cr	      4.28662      6.35111      6.27749         0.006183     -0.063281     -0.025993
O	      2.23915      2.17613      2.07595        -0.020847      0.030853     -0.025349
O	      4.19479      4.14190      2.10416         0.022975      0.024491      0.000292
O	      4.24187      1.94391      4.14525        -0.045130      0.053121      0.000983
O	      6.65503      4.12957      4.33649        -0.073500     -0.016213     -0.039313
O	      6.41628      2.11418      6.11422        -0.003513     -0.086218     -0.029085
O	      8.57613      4.29369      6.36932        -0.002318     -0.029507     -0.003072
O	      2.14562      4.13583      4.21211         0.019369      0.033034     -0.045724
O	      4.36599      6.30081      4.24765        -0.029136     -0.012878      0.003971
O	      4.34320      4.26804      6.30185         0.099417      0.026237     -0.000374
O	      6.45836      6.40533      6.23562        -0.031271      0.037198      0.068672
O	      6.61587      4.19022      8.22150        -0.037151     -0.000455     -0.036715
O	      8.68064      6.25226      8.34681        -0.019003      0.017264      0.039680
O	      2.29772      6.23308      6.22320        -0.036374      0.028483     -0.003142
O	      4.40826      8.36898      6.33186        -0.060498      0.028597     -0.050555
O	      4.28630      6.43799      8.26445         0.035799     -0.015837      0.030355
O	      6.32903      8.50046      8.35340         0.063924     -0.041177      0.040153
O	      6.36715      6.49041     10.42772         0.039784     -0.049756     -0.029119
O	      8.72193      8.60466     10.40540         0.031944     -0.086657     -0.005916
