# total energy = -237.62437397 eV
 
CRYSTAL
PRIMVEC
0.007171 6.399017 6.138413 
6.388796 0.014810 6.131143 
4.258124 4.259597 0.010923 
PRIMCOORD
36 1
Li	      4.21868     10.56996      6.16593         0.096983      0.128444      0.051789
Li	      2.24472      8.58869      6.16024        -0.092864     -0.076729      0.022899
Li	      6.33649      6.31302      4.18311        -0.016377     -0.162120      0.011043
Li	      4.23335      4.40869      4.21236         0.009150      0.093167      0.041003
Li	      6.26140      4.41179      6.14076        -0.008683     -0.018731     -0.042001
Li	      6.38041      8.42730      6.13600         0.076041      0.036452      0.002294
Li	      4.43493      6.29858      6.11782        -0.073829     -0.095772      0.009720
Li	      4.24675      4.38917      8.04791        -0.022404     -0.033810     -0.057654
Li	      6.31750      6.33114      8.07591         0.036702     -0.109869     -0.030476
Sc	      6.42715      2.16980      8.10924        -0.021107     -0.090635     -0.156248
Sc	      8.36318      6.52662      6.12059        -0.077960      0.210209      0.234926
V	      2.19692      6.31639      8.02320        -1.113244      1.500505     -0.207540
Cr	      8.53460     10.62690     10.27133        -0.251133     -0.149244     -0.131721
Cr	      6.43416      8.50986     10.25738         0.179069      0.270907     -0.277274
Cr	      2.17278      4.21583      2.06969         0.089597      0.093358     -0.096716
Cr	      4.27193      8.51883      4.20822        -0.007922      0.072094     -0.643233
Co	      2.10924      6.40545      4.14651         0.002425      0.020860      0.146399
Cu	      4.32000      8.46421      8.07261        -0.008288      0.093506     -0.092098
O	      2.07098      2.09759      2.14069         0.354236      0.627903      0.023860
O	      4.36110      4.32922      2.13044        -0.832771     -0.266076      0.050632
O	      4.41767      1.96004      4.03912        -0.107272     -0.016451     -0.481415
O	      6.52725      4.14819      3.96101         0.119020     -0.087962      0.289545
O	      6.34829      2.13378      6.07649        -0.035184     -0.028291      0.156804
O	      8.52505      4.30165      6.15232         0.100922     -0.052329      0.114672
O	      2.04041      4.46018      4.06928        -0.083892      0.044862     -0.024819
O	      4.03991      6.51059      4.13214        -0.033995      0.148595     -0.055866
O	      4.27840      4.22898      6.12712         0.002385     -0.190898     -0.057654
O	      6.39632      6.41171      6.10193         0.058558      0.026900     -0.018134
O	      6.55342      4.25063      8.27208         0.016095     -0.069587      0.234028
O	      8.54136      6.28436      8.30877         0.100634     -0.104980     -0.129367
O	      2.11941      6.42401      6.23762        -0.098981      0.166061     -0.705504
O	      4.24410      8.59365      6.10956         0.026361     -0.103569      0.874835
O	      4.07399      6.37405      8.22538         1.485125      0.082892      0.351945
O	      6.42360      8.74939      8.20153        -0.047372     -1.769677      0.524341
O	      6.42072      6.43060     10.19320         0.029524     -0.166013      0.015243
O	      8.51856      8.49762     10.22050         0.150449     -0.023969      0.051742
