# total energy = -238.43313126 eV
 
CRYSTAL
PRIMVEC
0.062445 6.380836 6.352549 
6.336492 0.042214 6.373372 
4.233832 4.277903 0.018276 
PRIMCOORD
36 1
Li	      2.22021      6.34802      8.33093        -0.035736     -0.045323     -0.038246
Li	      4.33537      8.46362      8.39624         0.031133      0.001898      0.006385
Li	      2.11569      4.27348      2.22131        -0.024716      0.010626      0.044432
Li	      2.13496      2.27229      4.27216         0.040812      0.028381      0.056877
Li	      8.40021      6.47620      6.43967         0.028640      0.013746     -0.029072
Li	      0.18384      4.20167      4.31096        -0.020281     -0.006808      0.028749
Li	      6.31144      8.51720      6.43211        -0.040338      0.011170     -0.017755
Li	      4.31247      6.44545      6.47867         0.016524      0.007508      0.019934
Li	      6.36321      6.46289      8.36841        -0.007356     -0.013282     -0.028202
Sc	      4.28042      6.44584     10.46115        -0.009267      0.016767      0.027886
Sc	      6.33556      8.58048     10.45642        -0.033790      0.069551     -0.000131
V	      4.29103      6.39170      2.17346        -0.093016     -0.013412      0.184363
Cr	      4.22073      4.23485      0.09325        -0.121528     -0.042880      0.010983
Cr	      2.20923      8.49771      6.39050        -0.059866      0.019991      0.004132
Cr	      6.32095      4.44626      6.42062         0.003325      0.013146      0.043924
Cr	      2.18184      6.33500      4.24500        -0.047614      0.052543     -0.047344
Co	      4.18405      4.24421      4.25610         0.097876      0.080559      0.126715
Ni	      4.25727      4.30428      8.41112         0.068957     -0.063906      0.055116
O	      1.90591      2.15128      2.04856         0.175648     -0.049877     -0.022139
O	      4.23268      4.40391      2.09140        -0.031185      0.175951     -0.289654
O	      4.24828      2.10255      4.24098        -0.093631      0.187856     -0.038290
O	      6.37213      4.26006      4.40829        -0.425626      0.062541     -0.157433
O	      6.40736      2.14978      6.43085         0.011328     -0.011491      0.031756
O	      8.42231      4.19559      6.36439        -0.086719     -0.050390     -0.031511
O	      2.17293      4.37546      4.29202         0.538329     -0.091193     -0.016983
O	      4.19254      6.39757      4.13049         0.038523     -0.245442      0.113422
O	      4.48381      4.24689      6.35348         0.082450     -0.041954     -0.085016
O	      6.41709      6.22148      6.39946         0.001306     -0.026043     -0.051197
O	      6.33849      4.21221      8.36523         0.052416     -0.089254      0.040360
O	      8.66782      6.47660      8.56999        -0.038043     -0.005882      0.060821
O	      2.05772      6.48528      6.27629         0.056755     -0.037713      0.000440
O	      4.17318      8.64695      6.42144         0.038628     -0.025934     -0.009088
O	      4.26587      6.35328      8.50221        -0.018383      0.124001     -0.056513
O	      6.45748      8.52385      8.49583        -0.114117      0.002127     -0.066316
O	      6.42486      6.45426     10.72912         0.016921      0.001059      0.062057
O	      8.48938      8.51507     10.69324         0.001642     -0.018637      0.066535
