# total energy = -241.61030383 eV
 
CRYSTAL
PRIMVEC
-0.007800 6.296534 6.358625 
6.313350 0.006827 6.343969 
4.210163 4.189304 0.003247 
PRIMCOORD
36 1
Li	      8.44024      4.18239      4.28677         0.002131      0.012975      0.048479
Li	      6.26068      2.14935      8.44504        -0.006214     -0.009044      0.020057
Li	      8.35765      4.26124      8.46561         0.011445     -0.023174     -0.022309
Li	      4.14127      4.27450      4.38126         0.014980     -0.044226      0.006021
Li	      8.39802      6.34363      6.45535         0.026849     -0.084045      0.036383
Li	      6.20473      4.25711      6.44714        -0.048379      0.033885      0.003921
Li	      6.30809      4.19909     10.51642         0.007161      0.004734     -0.042829
Li	      2.23322      4.17279      6.28470         0.024975     -0.010281     -0.019047
Li	      4.24911      6.14163      6.30568         0.020274     -0.024411     -0.009112
Sc	      6.30741      2.13838      4.35387        -0.142845      0.082008     -0.019188
Sc	      6.19938      6.37468      4.37529         0.048362     -0.036455     -0.090132
V	      4.18887      2.12158      2.07143        -0.112399      0.000503      0.207045
Cr	      2.09580      6.29100      8.44011         0.028925      0.185938      0.056605
Cr	      2.15469      6.22503      4.23500         0.009947     -0.075257      0.075173
Cr	      4.26677      4.18351      8.38703         0.068281      0.043285     -0.008171
Cr	      6.33397      6.24899      8.39365        -0.072943     -0.101077     -0.026620
Co	     10.47694      4.18630      6.35499         0.022581      0.102085      0.110052
Co	      8.40634      2.18110      6.33040        -0.031190     -0.039766      0.075857
O	      2.21108      1.99822      2.15086         0.040992     -0.048870     -0.136878
O	      4.33885      4.05386      2.10023         0.042315      0.050242     -0.043139
O	      4.21508      2.07733      3.98358         0.028856     -0.055740     -0.059913
O	      6.34760      4.19596      4.09637         0.028863     -0.077016     -0.005607
O	      6.29304      1.96431      6.36961         0.082278     -0.046443     -0.099451
O	      8.62685      4.16537      6.32754        -0.067444     -0.046093     -0.032544
O	      2.10503      4.22408      4.22727        -0.010825      0.067028      0.054082
O	      4.16420      6.28789      4.24933        -0.067688      0.045514      0.064113
O	      4.21125      4.17429      6.47214        -0.008101     -0.049300     -0.002153
O	      6.33583      6.27952      6.39292        -0.000046      0.022631      0.045769
O	      6.22849      4.29568      8.44746        -0.055041      0.074581     -0.065176
O	      8.33647      6.36592      8.56131        -0.015394      0.017280     -0.044123
O	      1.92443      6.34714      6.35464         0.047102      0.004712     -0.003443
O	      4.18866      8.48044      6.53857        -0.000807      0.096821      0.042578
O	      4.20243      6.32375      8.40982         0.006189     -0.025460     -0.105565
O	      6.28239      8.40254      8.48157         0.042094     -0.027870     -0.025226
O	      6.39813      6.32125     10.46990         0.042784     -0.023358     -0.034898
O	      8.38708      8.30404     10.51133        -0.008069      0.003663      0.049390
