# total energy = -235.17048246 eV
 
CRYSTAL
PRIMVEC
0.008561 6.191675 6.508850 
6.253269 -0.006946 6.523787 
4.149849 4.119321 0.013832 
PRIMCOORD
36 1
Li	      6.25289      0.08116      6.48203        -0.137570      0.027494      0.092023
Li	      6.14820      4.17989      2.21829        -0.103561      0.071760      0.397098
Li	      8.34095      4.02968      4.49459        -0.255657      0.099753      0.124479
Li	      6.35703      8.23098     10.94585        -0.118946      0.237679     -0.011925
Li	      0.06097      1.98772      2.04860         0.090946     -0.043043     -0.169431
Li	      4.16018      4.15620      4.31477         0.193719     -0.149096     -0.122850
Li	      6.28860      4.04557      6.46167         0.103105     -0.001676     -0.229295
Li	     10.35542      8.28511     10.89109         0.063014     -0.030573     -0.089963
Li	      2.07768      4.16406      6.40840        -0.040102     -0.076197     -0.094144
Sc	      4.24961      2.10448      2.25271        -0.294919      0.329799      0.709939
Sc	      8.30451      4.11690      8.72299         0.137300     -0.318935      0.246918
V	      4.11950      6.14740      6.48532        -0.744645     -0.040420     -1.218316
Cr	      6.22382      6.10923      4.40347         0.227107      0.826064      0.062050
Cr	      4.24322      2.05719      6.42418         0.071205     -0.071615     -0.310138
Cr	      8.33855      8.24152      8.74717        -0.029778     -0.159564     -0.204414
Cr	      6.26144      6.17831      8.72915         0.159800     -0.002092     -0.192334
Cu	      8.23950      2.05594      6.43498        -0.217361      0.505574      0.122150
Cu	      8.23513      6.16547     10.94480         0.025527     -0.341079     -0.084732
O	      8.33988      8.12780     10.68117         0.110579     -0.109468      0.209426
O	      2.10552      2.06882      2.41102         0.070025      0.120718     -0.509432
O	      4.11214      4.08330      2.19258         0.016877      0.005499     -0.179914
O	      4.04250      2.08535      4.42114         0.732655     -0.053390     -0.008027
O	      6.23574      4.31789      4.36316         0.061698     -1.719865      0.057949
O	      6.21928      2.07791      6.48275         0.095531     -0.193845     -0.049078
O	      8.34364      4.14291      6.56872         0.102439     -0.000313     -0.030520
O	      2.05817      4.06923      4.31920        -0.040731      1.029692      0.026274
O	      4.24209      6.16168      4.57411        -0.909077      0.083555      1.559990
O	      4.16559      4.21593      6.63612        -0.109860      0.538956      0.009945
O	      6.24420      6.21081      6.48429        -0.689027      0.113814      0.590807
O	      6.19705      4.18041      8.68086        -0.045410      0.115324     -0.056559
O	      8.28221      6.24139      8.47419        -0.141626      0.028726     -0.055766
O	      2.19827      6.25779      6.58426         1.285482     -0.380014      0.021914
O	      4.06839      8.06287      6.63288         0.222123     -0.360707     -0.027781
O	      4.25663      6.12750      8.59577         0.108803      0.082232     -0.477315
O	      6.30497      8.19452      8.69680         0.028240     -0.128194     -0.117429
O	      6.30113      6.17243     10.66419        -0.027904     -0.036555      0.008403
