# total energy = -91.90759448 eV
 
CRYSTAL
PRIMVEC
2.140971 4.377640 2.113152 
4.207974 -2.157141 -2.101278 
0.005738 4.399666 -4.275155 
PRIMCOORD
16 1
Li	      2.19671      2.37620     -0.09442        -0.032447      0.214151     -0.181921
Li	      2.23315      0.22291     -2.16641        -0.412524      0.184486     -0.015870
Li	      4.35619      2.32428     -2.15515        -0.139928      0.160262     -0.015893
Li	      2.26061      4.44484     -2.14372         0.139244     -0.444940     -0.027523
Mn	      0.09001      0.16907      0.01976         1.223328     -1.736465     -3.146499
Mn	      2.17413      2.28739     -4.37381         0.041987      1.308472      2.088363
Ni	      0.02087      2.24253     -2.16382         1.307614     -0.227450     -0.024264
Ni	      4.35633      4.58463     -4.42095        -0.278016     -0.350426      0.667820
O	      4.39665      4.76304     -2.25562        -0.721035     -0.166862     -0.435812
O	      4.25820      2.33600     -4.48988        -0.664239      0.468497      1.361076
O	      4.49105      2.22339      0.09744        -0.420749      0.175178     -0.602973
O	      4.40479     -0.19586     -2.15863        -0.348662      1.937582      0.413092
O	      2.15570      4.56272      0.12719        -0.357421     -0.114034      0.211620
O	      2.20632      2.29065     -2.34907        -0.003177      0.252293     -0.931547
O	      2.30300      6.95781     -2.21872         0.380010     -0.929471      0.103585
O	      2.10004      4.39428     -4.41378         0.286015     -0.731274      0.536746
