# total energy = -240.46024030 eV
 
CRYSTAL
PRIMVEC
0.014377 6.216087 6.345134 
6.378137 0.018450 6.341078 
4.262781 4.151794 0.001631 
PRIMCOORD
36 1
Li	      0.14553      6.18107      6.30192        -0.006553      0.024794     -0.019645
Li	      2.06819      2.05295      0.08482        -0.059736      0.021663     -0.020861
Li	      2.13258      6.27054      8.38997         0.049199     -0.036136     -0.045894
Li	      4.31523      6.16384     10.53205         0.053890     -0.005144      0.043713
Li	      6.40539      8.30763     10.54146        -0.007264      0.017442      0.017455
Li	      0.13748      2.04411      2.14753         0.005865      0.041884     -0.067175
Li	      2.08462      2.03854      4.14205         0.013884      0.025683     -0.024257
Li	      4.18885      6.26643      6.34212        -0.062264      0.014251      0.025822
Li	      6.36816      6.21274      8.55274         0.011255      0.008743      0.014315
Sc	      4.23954      8.21500      8.47774        -0.007083     -0.033352     -0.016370
Sc	      8.55156      6.14539      6.33831         0.147017     -0.111782      0.007024
V	      6.40807      4.17230      6.29187         0.206515     -0.202786     -0.085319
Cr	      4.27904      4.21474      4.19011         0.014515     -0.053889     -0.024843
Cr	      0.02568      4.13253      4.22761        -0.022820      0.070549      0.045916
Cr	      6.37508      8.30976      6.38423        -0.084897      0.066325     -0.008027
Cr	      4.24562      4.21896      8.47502        -0.082726      0.064075      0.111895
Fe	      8.46573      6.28148     10.61509        -0.022688     -0.003906      0.015547
Cu	      2.18219      4.12832      2.09099         0.042383      0.039720     -0.157799
O	      2.19618      2.17779      2.09411        -0.053536     -0.189985      0.047668
O	      4.24155      4.15013      2.22853         0.161571      0.038264     -0.035275
O	      4.29812      2.19370      4.23708        -0.063483      0.055351     -0.013339
O	      6.24020      4.21087      4.37960        -0.116265     -0.015959      0.098905
O	      6.33929      2.29973      6.35704        -0.053062      0.130988     -0.006510
O	      8.33016      4.14909      6.23032        -0.065933      0.085304     -0.091046
O	      2.13354      4.17251      4.35910         0.007906     -0.026865      0.168082
O	      4.16060      6.23268      4.23520         0.040173      0.000582     -0.022003
O	      4.24270      4.16025      6.35819         0.018102     -0.061174      0.022343
O	      6.42500      6.12791      6.36519         0.080022      0.016526      0.003178
O	      6.31968      4.17306      8.46068        -0.238979     -0.025476     -0.020183
O	      8.51153      6.23424      8.46612         0.005440      0.198765      0.044072
O	      2.12460      6.15039      6.27417         0.042083     -0.135051      0.026135
O	      4.39664      8.27181      6.28989         0.054994      0.014721      0.029251
O	      4.23293      6.18209      8.49869         0.015289      0.022928     -0.030615
O	      6.46825      8.30616      8.37063        -0.029137      0.000801     -0.011594
O	      6.49165      6.14813     10.59025        -0.021975     -0.078520     -0.011719
O	      8.63970      8.27287     10.46481         0.028302      0.020666     -0.008847
