# total energy = -245.02465708 eV
 
CRYSTAL
PRIMVEC
0.019524 6.418681 6.209917 
6.432758 0.025965 6.203783 
4.300506 4.287109 0.005583 
PRIMCOORD
36 1
Li	      2.07906      2.05159      0.13392        -0.028977     -0.049203     -0.013702
Li	      2.13671      0.10953      2.06419         0.005794      0.013607     -0.018451
Li	      0.04655      2.12147      2.06872        -0.003700     -0.000854     -0.003922
Li	      6.34484      6.30954      4.15567        -0.051817     -0.074376      0.019331
Li	      4.37788      4.42075      4.18278         0.019040      0.013534     -0.004903
Li	      6.28828      4.36706      6.28255         0.032770     -0.022098     -0.046424
Li	      4.37278      6.27874      6.28998        -0.035362     -0.020821     -0.027550
Li	      4.39252      4.33303      8.16787         0.032112     -0.001411     -0.008770
Li	      6.42681      6.38599      8.15329         0.017776      0.003678      0.022103
Sc	      8.53036     10.71453     10.28051        -0.057412     -0.037393      0.062118
Sc	      4.30845      8.44550      4.11372        -0.048137     -0.064256      0.052505
V	      6.51764      8.55267      6.28152        -0.018254      0.014832     -0.041871
Cr	      0.02295      0.02986      0.02830         0.006705      0.017724      0.058227
Cr	      4.24853      2.16232      2.06543         0.007319      0.025239      0.020308
Cr	      4.30197      2.22630      6.24307         0.019579     -0.008432      0.008625
Cr	      8.61126      6.45495     10.30554         0.064626      0.041868     -0.007840
Fe	      6.43081      2.25614      4.09161         0.065123     -0.064622     -0.028860
Fe	      8.55729      4.25543      8.24944         0.074548      0.014578      0.015258
O	      2.24506      2.24671      2.09861        -0.014385     -0.093974      0.044685
O	      4.22250      4.19768      2.02192         0.014379      0.003246     -0.032247
O	      4.40667      2.10208      4.13906        -0.062320      0.007492     -0.003531
O	      6.49914      4.19178      4.17411         0.034435      0.147171     -0.025374
O	      6.37527      2.06136      6.11277        -0.010585     -0.001371      0.080624
O	      8.70865      4.41993      6.22169         0.007182      0.007701     -0.053161
O	      2.11500      4.41623      4.16001        -0.021941      0.002645      0.018010
O	      4.17441      6.45607      4.19193         0.010662      0.024323     -0.022950
O	      4.27066      4.19961      6.24877         0.035445     -0.002005     -0.030058
O	      6.60177      6.59009      6.16558         0.031809     -0.055890     -0.000476
O	      6.57030      4.28620      8.29987        -0.102049      0.022429      0.000140
O	      8.62437      6.32200      8.27334        -0.011069      0.060135      0.036069
O	      2.04486      6.35210      6.12102         0.034003      0.061729      0.021454
O	      4.36553      8.68828      6.26179        -0.053921      0.013898     -0.010157
O	      4.30054      6.55753      8.28422         0.027115     -0.005145     -0.025185
O	      6.33604      8.60071      8.28949        -0.053725      0.003145     -0.058227
O	      6.49664      6.45740     10.38593         0.023484      0.020386      0.032856
O	      8.57601      8.54353     10.31250         0.009749     -0.017510     -0.028655
