# total energy = -235.38391245 eV
 
CRYSTAL
PRIMVEC
0.003197 6.270855 6.263391 
6.318117 0.018055 6.248421 
4.230410 4.189055 -0.006338 
PRIMCOORD
36 1
Li	     10.46349      4.18075      6.22002         0.018650      0.008507     -0.014146
Li	      8.43833      2.20712      6.20368         0.026472      0.007082      0.001958
Li	      2.15714      6.26315      8.20600        -0.056108      0.032057     -0.063073
Li	      8.39113      4.21016      8.05134         0.022427     -0.025808      0.059375
Li	      8.33192      6.14886      6.31349         0.016619      0.056980      0.024077
Li	      6.50068      4.32723      6.32690         0.029214      0.001474      0.013203
Li	      4.19009      6.19608      6.41389        -0.034733     -0.002566      0.005683
Li	      4.23455      4.31838      8.25882         0.019877     -0.021337     -0.004617
Li	      6.21753      6.26082      8.26920        -0.047312     -0.006563     -0.009633
Sc	      4.13105      8.26972      8.21434        -0.057960      0.105436     -0.033246
Sc	      4.26262      4.23149      4.29067        -0.035313      0.022032      0.025192
V	      6.24029      2.10748      8.11330         0.072117     -0.054601      0.090830
Cr	      6.40237      8.34564     10.38457        -0.043277      0.008246      0.032578
Cr	      6.35098      6.25598      4.22648        -0.033013      0.010787     -0.015860
Cr	     10.52277      8.41423     10.42148        -0.012757     -0.017223      0.003022
Cr	      6.36867      8.38834      6.33433        -0.048483      0.034316      0.076240
Ni	      8.44854      4.17967      4.22660         0.009960      0.022098     -0.090607
Ni	      2.09841      6.29800      4.24875         0.089866     -0.074594     -0.094765
O	      8.46185      4.20094      6.18341         0.016209      0.004275      0.159683
O	      2.01275      2.09317      2.19150         0.008057      0.009922      0.046035
O	      4.23846      4.38404      2.13188        -0.011510      0.026437      0.011748
O	      4.23978      2.15018      4.11733        -0.003322      0.079955      0.019108
O	      6.31000      4.16064      4.22783        -0.063325      0.009974      0.023559
O	      6.34033      2.11923      6.34909         0.013025      0.006936     -0.114628
O	      2.04199      4.12200      4.28518         0.016326     -0.093910     -0.006652
O	      4.31856      6.35469      4.10033         0.072881     -0.014545      0.006910
O	      4.11332      4.19545      6.26073         0.017867     -0.044942      0.015837
O	      6.34490      6.35197      6.18466        -0.040837     -0.020399      0.014825
O	      6.35990      3.99402      8.43083        -0.004251      0.038253     -0.035292
O	      8.71481      6.27830      8.40565         0.030123     -0.011848     -0.109271
O	      2.13259      6.17157      6.21107        -0.028903     -0.048936      0.168980
O	      4.29512      8.37752      6.18393         0.028926     -0.030586     -0.004320
O	      4.20229      6.32940      8.41925        -0.019516     -0.010647     -0.125804
O	      6.24471      8.38556      8.40449         0.018853     -0.005735      0.007844
O	      6.36856      6.30054     10.35380        -0.022144     -0.029713     -0.025490
O	      8.42241      8.35077     10.42107         0.035296      0.029186     -0.059283
