# total energy = -247.39975103 eV
 
CRYSTAL
PRIMVEC
0.021486 6.291495 6.323246 
6.290636 0.018552 6.326321 
4.201055 4.203674 0.005014 
PRIMCOORD
36 1
Li	      6.32339      6.31194     12.57728        -0.012296      0.026451     -0.065995
Li	      4.15478      2.12629      2.09502        -0.026453     -0.001401      0.020848
Li	      6.29205      2.10770      8.35416         0.005555     -0.018822     -0.019846
Li	      6.34244      6.30265      4.32590        -0.043243     -0.017870      0.077706
Li	      4.21768      2.10503      6.29924         0.043112     -0.001855      0.028998
Li	      6.30910      4.22271      6.32727         0.002633     -0.014261      0.026805
Li	      0.04376      4.23054      4.25562         0.003303     -0.028705     -0.045573
Li	      8.35832      6.28801     10.53511         0.037403     -0.016157     -0.019474
Li	      4.28754      6.32184      6.30775        -0.029037     -0.037368     -0.062794
Sc	      2.19773      8.33191      6.24734        -0.047024      0.025735     -0.000213
Sc	      8.41113      4.21706      8.41968        -0.013243     -0.037410     -0.032380
V	      4.20026      4.30514      4.30469         0.009135      0.117769     -0.072499
Cr	      2.06543      0.04826      2.10416         0.061591      0.066157     -0.032556
Cr	      6.26543      2.10614      4.26597        -0.014530     -0.075463      0.108639
Cr	      6.23915      8.38274      6.29009        -0.034538      0.002266      0.021603
Cr	      4.25875      4.16280      8.40713         0.079907     -0.028987      0.013539
Cr	      6.27470      6.31249      8.40067        -0.027082     -0.080922      0.075014
Co	      4.18969      0.10680      4.30579        -0.029181     -0.017237      0.034719
O	      2.10332      2.05545      2.05493         0.018400      0.022122     -0.049559
O	      4.23767      4.20705      2.26167         0.066544     -0.001771      0.021972
O	      4.27581      2.25264      4.23057         0.052504     -0.020649     -0.018217
O	      6.25147      4.16223      4.15625         0.030298     -0.031843     -0.097422
O	      6.36921      2.10615      6.20825         0.021343      0.043604     -0.053699
O	      8.42383      4.17202      6.37956         0.009713     -0.004522     -0.059580
O	      2.19681      4.16322      4.26670         0.076790      0.051003      0.082797
O	      4.22122      6.06903      4.24593         0.002679     -0.051264      0.002021
O	      4.11248      4.19491      6.33943        -0.114442      0.016342     -0.003105
O	      6.27414      6.40040      6.42905         0.028954      0.028258      0.032349
O	      6.26473      4.29996      8.45679        -0.008793      0.023737     -0.033512
O	      8.30564      6.33921      8.43918        -0.018977      0.011616      0.015295
O	      2.09698      6.23168      6.43779        -0.030051     -0.011708      0.039922
O	      4.26100      8.38921      6.27024        -0.005430      0.008197      0.039360
O	      4.17889      6.20064      8.48817         0.021562     -0.013517      0.058977
O	      6.38784      8.42569      8.41096        -0.011618      0.002908      0.023142
O	      6.26738      6.41192     10.42657        -0.042210      0.076599     -0.055893
O	      8.34394      8.39341     10.44810        -0.063278     -0.011031     -0.001388
