# total energy = -247.34786327 eV
 
CRYSTAL
PRIMVEC
-0.006529 6.307449 6.246700 
6.389530 0.004062 6.235947 
4.256498 4.194563 0.005949 
PRIMCOORD
36 1
Li	      6.34034      4.15416      2.13012        -0.006735      0.011807      0.019215
Li	      4.30453      2.17235      2.07886         0.011620      0.024551      0.041728
Li	      8.43313      4.27943      8.28793        -0.014098     -0.024210     -0.049835
Li	      4.25018      4.19481      4.11926        -0.025906      0.011896      0.023701
Li	      8.43766      6.32005      6.32515        -0.018096      0.016612      0.019553
Li	      6.35426      4.29115      6.35412        -0.062824      0.041408     -0.044954
Li	      6.42962      4.23772     10.26793         0.048156     -0.012441     -0.007387
Li	      4.32988      4.20594      8.28079         0.019053      0.023229     -0.025419
Li	      6.44344      6.15020      8.28294         0.002351     -0.038949      0.006995
Sc	      6.30468      2.19377      8.29643        -0.048834     -0.043854      0.000171
Sc	      2.20291      2.13627      4.10421         0.032149      0.021567     -0.020009
V	      4.26690      6.28794      6.36741         0.028594     -0.133315      0.028998
Cr	      4.24280      4.15096      0.05388        -0.042804     -0.014107      0.070026
Cr	      2.14199      2.10503      0.04418        -0.014074      0.071844      0.015168
Cr	      4.28413      6.28175     10.29035        -0.001283     -0.004794      0.107033
Cr	      6.35146      2.14228      4.09483        -0.021943      0.027889     -0.107302
Cr	      8.49479      6.25191     10.35033         0.010385     -0.019501     -0.075118
Fe	      6.48423      8.33473      6.43018        -0.028783      0.106017     -0.130049
O	      2.07792      2.11698      2.05622         0.011029     -0.006740     -0.027074
O	      4.24877      4.23347      1.99111         0.004387     -0.015136     -0.008801
O	      4.30838      1.99547      4.16183         0.024562      0.002447      0.004696
O	      6.53564      4.17150      4.17002        -0.038853     -0.017432      0.020383
O	      6.47802      2.00326      6.16847         0.022145     -0.022310     -0.049092
O	      8.65527      4.07653      6.09528        -0.032259      0.041028      0.025660
O	      2.11394      4.24458      4.30976        -0.028390      0.011888     -0.079376
O	      4.19074      6.30104      4.23008         0.019560     -0.002087      0.008138
O	      4.16144      4.30851      6.25334         0.098901      0.015168     -0.025469
O	      6.33908      6.37590      6.21166         0.070737     -0.083130      0.009993
O	      6.38933      4.16425      8.30327         0.004619      0.003293     -0.012962
O	      8.51469      6.29125      8.40841         0.018576     -0.013194      0.020255
O	      2.07898      6.32098      6.18155        -0.012162      0.019722      0.014281
O	      4.18285      8.39180      6.25219        -0.018090      0.004276      0.016920
O	      4.25075      6.31228      8.31539         0.030988     -0.015116     -0.022700
O	      6.36637      8.43078      8.33168        -0.053826      0.031752      0.240278
O	      6.40356      6.39246     10.45352        -0.002709     -0.026145     -0.006678
O	      8.39265      8.37973     10.48163         0.013854      0.006068     -0.000966
