# total energy = -244.39265533 eV
 
CRYSTAL
PRIMVEC
0.030348 6.275605 6.327845 
6.280222 0.019573 6.338482 
4.195641 4.199558 0.004263 
PRIMCOORD
36 1
Li	      4.17344      2.13477      2.14672        -0.027210      0.012361      0.030424
Li	      6.22426      2.08706      4.24093        -0.071423      0.008088      0.030743
Li	      4.21307      6.28554      2.12167         0.006645     -0.000791      0.010381
Li	      2.15064      4.18079      2.13890         0.030808      0.035450      0.009165
Li	      4.15172      4.14372      4.18233        -0.017147     -0.087057     -0.020814
Li	      8.39891      6.29949      6.35555        -0.037133      0.001809      0.034466
Li	      4.24077      8.34399      4.22593         0.026117      0.015479      0.038021
Li	      4.26091      6.34531      6.29834        -0.000797      0.037083     -0.033387
Li	      8.40592      8.36578      8.46343         0.007834     -0.034351     -0.029632
Sc	      6.29915     10.41227      8.48653         0.015845     -0.081763      0.003092
Sc	      2.25248      6.27327      4.12465         0.077028     -0.022224     -0.089016
V	      6.11187      4.18456      6.40342        -0.294782     -0.059437      0.019761
Cr	     10.43100      4.25865      6.37668         0.036958     -0.029516      0.075994
Cr	      2.12553      2.12980      0.03805         0.073150     -0.024210      0.022031
Cr	      4.23931      6.29720     10.53794        -0.034155      0.035699     -0.064806
Cr	      2.09264      2.16227      4.19470         0.031897     -0.003410     -0.012250
Cr	      6.30645      6.31747      8.42536         0.077861      0.051247      0.089239
Ni	      6.26766      8.34485      6.33537         0.087714      0.042380     -0.009600
O	      2.10088      2.04313      2.13762         0.027906      0.067297     -0.061008
O	      4.22828      4.20854      1.98932         0.004498      0.020254      0.008002
O	      4.08694      2.00990      4.24671         0.027910     -0.048473     -0.012370
O	      6.35564      4.27366      4.28690         0.009846     -0.019326      0.010953
O	      6.36527      2.17450      6.35932         0.043912     -0.110564     -0.039604
O	      8.38243      4.14516      6.25622         0.011681      0.066730      0.032059
O	      2.13891      4.15763      4.31914        -0.049773      0.012858     -0.183724
O	      4.25948      6.30450      4.22077        -0.010570      0.043044      0.001939
O	      4.35018      4.17021      6.29689         0.150057      0.004461     -0.043393
O	      6.28694      6.21838      6.34057        -0.058556     -0.102908     -0.011077
O	      6.32432      4.30323      8.26718         0.008614      0.057177     -0.101522
O	      8.29421      6.31160      8.47740         0.009414     -0.004338      0.083971
O	      2.03946      6.33335      6.33826         0.020062      0.139274      0.006465
O	      4.16916      8.52456      6.33783        -0.107214     -0.029476     -0.015290
O	      4.26090      6.25438      8.53222        -0.014695     -0.025990     -0.012960
O	      6.33725      8.33787      8.35331        -0.063683      0.009229      0.150920
O	      6.26836      6.32723     10.52541        -0.009034     -0.017818      0.083521
O	      8.41582      8.42478     10.69489         0.010415      0.041730     -0.000692
