# total energy = -217.84242944 eV
 
CRYSTAL
PRIMVEC
0.036365 6.480090 6.143016 
6.330156 0.037669 6.143013 
4.231815 4.331919 0.011711 
PRIMCOORD
36 1
Li	      6.37321     10.74248      8.17526        -0.003011     -0.032314     -0.005081
Li	      8.57548     10.71179     10.24279        -0.044182     -0.032797      0.029740
Li	     10.51593      6.56516      8.26280        -0.006920      0.028574     -0.022093
Li	      4.26469      2.32537      6.17254         0.033193      0.059500     -0.011123
Li	     10.47073      8.72806     10.20480         0.038677     -0.010779      0.002477
Li	      2.17728      6.53520      4.15347         0.010198     -0.006262     -0.017696
Li	      2.23750      4.42893      6.18111        -0.049835      0.001855      0.004079
Li	      4.22237      6.29522      6.10361        -0.046746      0.019619      0.031845
Li	      8.45795      8.64818      8.21753        -0.000792     -0.008506     -0.018230
Sc	      8.41545      8.56865     12.19403         0.014957     -0.042018      0.015291
Sc	      6.26932      6.44811      4.24441         0.009308      0.046906     -0.032152
V	      4.32375      8.51978      8.16764        -0.128733      0.042571     -0.136279
V	      8.44146      4.55195      8.21963         0.080681     -0.052470     -0.055159
Co	      6.37347      6.51709     12.25525        -0.010676      0.002526     -0.140798
Cu	      6.26046      4.35733      6.14136         0.274457      0.017801      0.155698
Ni	      6.40480      8.65385     10.25717        -0.042197      0.015516     -0.020023
Ni	      4.25977      4.40398      4.16199        -0.150030     -0.045611     -0.104420
Ni	      6.37528      6.53543      8.19064        -0.023817     -0.014034      0.142761
O	      2.29892      2.23763      2.05793        -0.008188      0.004708      0.022731
O	      4.06859      4.25233      1.95211        -0.020030     -0.050554      0.054757
O	      4.22349      2.30423      3.89027        -0.025721     -0.053467      0.069646
O	      6.32300      4.31837      4.16060         0.127851      0.061951     -0.033126
O	      6.32305      1.97216      6.15607        -0.057851     -0.082173      0.101046
O	      8.52120      4.29926      6.29215         0.013649     -0.041584     -0.013263
O	      2.18618      4.27535      3.88662        -0.130628     -0.016397      0.095918
O	      4.28195      6.44570      4.10056        -0.018889      0.113388     -0.028408
O	      4.32019      4.31829      6.19811        -0.046654     -0.003670      0.110483
O	      6.41193      6.62662      6.21115         0.059131      0.045252     -0.090741
O	      6.59262      4.35510      8.11875        -0.056759     -0.047462     -0.020774
O	      8.46418      6.30823      8.21801         0.076299      0.128721     -0.013356
O	      1.98903      6.49513      6.17293         0.040784      0.017601     -0.000428
O	      4.24188      8.83363      6.29792         0.006330     -0.004780     -0.003743
O	      4.25580      6.75743      8.14530        -0.075234     -0.038513      0.005755
O	      6.16174      8.67599      8.21244         0.106740      0.121513     -0.100638
O	      6.33241      6.58304     10.27614        -0.023374     -0.095514      0.086449
O	      8.47211      8.71264     10.19888         0.078013     -0.049098     -0.061146
