# total energy = -216.76475076 eV
 
CRYSTAL
PRIMVEC
0.027140 6.258700 6.406896 
6.242343 0.046542 6.386996 
4.176285 4.173723 0.016381 
PRIMCOORD
36 1
Li	      6.25040      6.29094     12.71643         0.006570      0.087824     -0.274680
Li	      8.38587      8.40312     12.76291        -0.020577     -0.052366     -0.153257
Li	      4.27484      6.29472     10.74309         0.251719      0.028572     -0.004615
Li	      4.15453      6.17414      2.21594         0.021617     -0.016985      0.116893
Li	      4.09266      4.26665      4.20070         0.084717     -0.012492     -0.044221
Li	      4.25237      8.37369      4.44146        -0.036810      0.172518      0.051356
Li	      2.17835      6.16825      4.28385        -0.238091      0.100195      0.038636
Li	      4.07345      6.31883      6.26707         0.028679     -0.004697     -0.001606
Li	      6.36832      6.28368      8.64542        -0.048771      0.034022      0.325002
Sc	      4.24682      8.28758      8.46218         0.102144      0.005704      0.077774
Sc	      6.15319      6.31545      4.27081         0.051901     -0.187477      0.088812
V	      2.07522      6.24589      8.45066        -0.081363     -0.191911      0.188008
V	      8.51555      8.32032      8.75056        -0.517076     -0.003278      0.539087
Co	      6.17880      2.10193      4.30072         0.259091     -0.687246     -0.176243
Cu	      8.37422      4.30476      8.51867        -0.033086      0.021839     -0.034596
Cu	      4.16707      2.12121      6.38901         0.073402     -0.176836     -0.086470
Cu	      2.09144      4.19721      6.31273        -0.047455      0.070460     -0.046701
Ni	      6.22484      4.21426      6.35757        -0.058886     -0.044787     -0.111109
O	      6.26920      6.47741     10.71557         0.006759      0.152417     -0.025625
O	      2.11412      1.94448      2.11526        -0.028862     -0.088259     -0.020846
O	      4.26704      4.13190      2.11557        -0.047477     -0.005108     -0.058063
O	      4.25230      2.05420      4.15825        -0.054994      0.167498     -0.302254
O	      6.26531      4.10313      4.14690        -0.036907      0.429284      0.008140
O	      6.07601      2.19486      6.21509         0.121923      0.120858     -0.063744
O	      8.25291      4.37985      6.58023         0.080152     -0.036995     -0.001337
O	      2.08565      4.16630      4.03930         0.067590      0.117511      0.090098
O	      4.22390      6.24472      4.31825        -0.036721      0.029651     -0.005806
O	      4.09531      4.06554      6.54246        -0.035046     -0.073145     -0.006077
O	      6.42103      6.30552      6.38350        -0.088064      0.014638      0.129562
O	      6.07246      4.28027      8.46971         0.370562     -0.051511      0.044467
O	      8.35082      6.56062      8.63241         0.064873     -0.055285      0.125329
O	      2.11156      6.19955      6.64157         0.019666     -0.065538     -0.230895
O	      4.31198      8.32129      6.44370        -0.063723     -0.005028     -0.157967
O	      4.08079      6.11642      8.48563         0.055706     -0.008066     -0.019243
O	      6.36620      8.39654      8.74904        -0.013611      0.131272     -0.024858
O	      8.31542      8.42667     10.54828        -0.179549      0.082746      0.027051
