# total energy = -217.27639478 eV
 
CRYSTAL
PRIMVEC
0.012928 6.279662 6.297714 
6.292085 -0.007576 6.318808 
4.175393 4.180926 0.014026 
PRIMCOORD
36 1
Li	      4.23432      4.16840      0.08956         0.030786     -0.063965     -0.068338
Li	      2.18166      8.27338      6.40617         0.037969     -0.001943     -0.046175
Li	      4.23969      8.37036      8.31142         0.034432      0.011812      0.050372
Li	      6.22215      6.30473      4.22551        -0.000849     -0.017961     -0.050467
Li	      4.07403      4.32892      4.18978         0.020803     -0.006764     -0.034355
Li	      6.24716      4.30320      6.30803        -0.061518      0.014426     -0.021083
Li	      2.21298      6.15265      4.32934        -0.062026      0.032191      0.005219
Li	      6.27870      8.34099      6.30024         0.001132      0.003730     -0.062117
Li	      6.24927      6.32968      8.30178         0.047780     -0.000913      0.022635
Sc	      0.10913      4.13206      4.24431        -0.004744      0.037989      0.225098
Sc	      4.20591      4.17324      8.33732        -0.052795     -0.045738     -0.100949
V	      8.35643      4.18424      4.35843         0.143590      0.013468      0.077585
V	      6.27310      2.06265      4.34590         0.068644     -0.120298      0.109313
Co	      6.28478      2.06955      8.32140        -0.003070      0.002556      0.093058
Cu	      2.08467      0.04199      2.11874        -0.211939      0.127911     -0.096675
Cu	      2.11303      4.13945      2.07304        -0.078114      0.023403     -0.053284
Cu	      8.25758      6.32016      6.26849        -0.146777      0.181588      0.082377
Cu	      4.24057      6.28941      6.33678         0.045870     -0.032969     -0.099841
O	      6.16781      6.29624      6.30326         0.198580      0.047135     -0.007615
O	      2.30929      6.25355      6.51003        -0.282339      0.002044      0.118299
O	      1.90111      2.11147      2.06821         0.118977     -0.281287     -0.003531
O	      4.09010      4.33026      2.02493         0.292014     -0.011320      0.043688
O	      4.27051      2.00706      4.31874        -0.119381     -0.033424     -0.249519
O	      6.36121      4.07296      4.13889        -0.123171      0.104044      0.019357
O	      6.25767      2.10613      6.19814         0.139960      0.000868      0.092967
O	      8.32900      4.12184      6.18381         0.001236     -0.033795      0.255104
O	      2.08828      4.20332      4.06172         0.120319      0.034934      0.061685
O	      4.12888      6.31171      3.90933        -0.050979     -0.139985     -0.034323
O	      4.18502      4.37257      6.32254        -0.025356     -0.220222     -0.093067
O	      6.30609      4.05083      8.39327         0.003650      0.035372     -0.160142
O	      8.46624      6.25823      8.19914         0.009308     -0.084173      0.111930
O	      4.24580      8.19382      6.30849        -0.025168      0.321025     -0.004480
O	      4.28931      6.23474      8.74880        -0.059570      0.124961     -0.116316
O	      6.31902      8.33861      8.70955        -0.082552      0.042620     -0.101515
O	      6.23046      6.32329     10.62144         0.019066     -0.030804     -0.067252
O	      8.32693      8.40851     10.53504         0.056231     -0.036517      0.102356
