# total energy = -217.30163230 eV
 
CRYSTAL
PRIMVEC
0.009208 6.184592 6.345420 
6.301132 0.000695 6.353944 
4.207502 4.135063 -0.006291 
PRIMCOORD
36 1
Li	      6.39316      6.22098     12.47893        -0.002982     -0.003185      0.031145
Li	      4.15318      8.26188      8.31626         0.070942     -0.018163     -0.077241
Li	      6.34393      2.02136      4.38001         0.000446      0.003282     -0.075264
Li	      6.31794      2.06802      8.30796        -0.068794     -0.039655     -0.023653
Li	      6.31293      6.20697      4.51513         0.005649     -0.025542      0.010387
Li	      8.30409      6.23335      6.32622        -0.035912     -0.065740     -0.013148
Li	      6.33579      4.09347      6.30484        -0.007372      0.011113     -0.032730
Li	      2.07880      6.17848      4.33903        -0.004692     -0.013000      0.038779
Li	      6.28208      8.20772      6.27251        -0.009186      0.128177      0.033061
Sc	      8.36413      4.09043      8.41458         0.086378      0.236709     -0.207872
Sc	      6.24694      6.28205      8.44866         0.000899      0.111168      0.056494
V	      4.30032      4.09042      4.08560        -0.093508      0.054592     -0.017665
V	      8.40404      8.20745      8.42082        -0.120222      0.006113      0.000547
Co	      8.38236      8.23953     12.66944         0.148384     -0.013587      0.221948
Ni	      2.11109      6.21301      8.40401        -0.044354     -0.132050     -0.056952
Ni	      4.21709      0.06881      4.31650        -0.055067      0.136124      0.055600
Ni	      4.22403      8.27475      4.27588         0.163666     -0.077263     -0.038304
Ni	      4.20395      6.21999      6.34109        -0.102562     -0.014736      0.058975
O	      2.10920      2.04559      1.87118         0.083416      0.058948     -0.363294
O	      4.21242      4.10066      2.28162        -0.130955      0.003814     -0.023755
O	      4.19842      2.26924      4.34590         0.052699      0.010557      0.016653
O	      6.13604      4.14764      4.20497        -0.004458      0.033613      0.085628
O	      6.56261      2.05342      6.34146         0.151339     -0.002319     -0.140529
O	      8.42102      4.00628      6.32965        -0.158941      0.304833      0.209702
O	      2.26004      4.08116      4.16470         0.010329     -0.027633      0.002772
O	      4.18954      5.93157      4.32404         0.060326     -0.031467     -0.147893
O	      4.24971      4.13990      6.60747         0.027189     -0.084192     -0.085017
O	      6.23664      6.20279      6.43054         0.142354     -0.004668     -0.022402
O	      6.27005      4.10710      8.55915         0.042501     -0.084860     -0.034487
O	      8.38157      6.23665      8.43125         0.081722     -0.085540      0.036725
O	      2.15278      6.34445      6.37084        -0.130246     -0.237599     -0.101139
O	      4.05091      8.24170      6.26302        -0.215121      0.000019      0.201773
O	      4.15789      6.14459      8.54561         0.106427      0.001299      0.043535
O	      6.44716      8.32156      8.46427         0.011622     -0.157299      0.080307
O	      6.26042      6.17355     10.53500         0.070499      0.105053     -0.011051
O	      8.46299      8.29261     10.48339        -0.132414     -0.086915      0.288364
