# total energy = -220.52543860 eV
 
CRYSTAL
PRIMVEC
0.032402 6.246081 6.305320 
6.358475 -0.021242 6.358674 
4.221450 4.182304 0.003434 
PRIMCOORD
36 1
Li	      4.23414      4.11268      0.08766         0.017059     -0.013258     -0.006822
Li	      2.18396      2.09286      0.09099         0.004353      0.007206     -0.046599
Li	      2.19259      0.14082      2.07041         0.008299      0.002209     -0.028875
Li	      4.25647      6.25170     10.43898        -0.039747      0.039952      0.024183
Li	      0.14191      2.09248      2.10657        -0.043371     -0.007240     -0.009510
Li	      6.23495      6.26042      4.13328        -0.048383      0.008873      0.013885
Li	      4.29373      8.29055      4.21877         0.068595     -0.093288      0.012135
Li	      4.40258      4.34867      8.42033         0.062229      0.058571      0.022861
Li	      6.22581      6.11798      8.46170         0.032087      0.026176      0.006581
Sc	      2.23016      6.25505      4.16528         0.091020     -0.066349      0.117101
Sc	      6.24753      8.32689      6.37739        -0.003408      0.071339     -0.076221
V	      6.47292      8.31989     10.43914         0.104008      0.076791     -0.058117
V	      8.48886      6.16455      6.38254        -0.077603      0.184796     -0.120098
Co	      2.08101      4.09162      2.08468         0.132349     -0.160174     -0.043639
Co	      6.37475      4.13924      6.36059         0.067042     -0.019667     -0.074184
Cu	      4.10776      2.04618      2.11529         0.093850      0.031031     -0.030041
Ni	      4.25333      4.17056      4.19406        -0.029014      0.011543     -0.012141
Ni	      4.23204      6.26551      6.35465         0.013753     -0.080813     -0.053721
O	      4.24935      6.34647      8.38485         0.019867      0.015830      0.068160
O	      2.10917      2.17865      2.11848         0.016075      0.285193      0.000561
O	      4.03890      4.03699      2.16518        -0.268455     -0.018972     -0.089132
O	      4.38194      2.10722      4.46927         0.028739     -0.117660      0.331627
O	      6.29804      4.00866      4.38097         0.106724     -0.068893      0.151588
O	      6.27996      2.18391      6.23941         0.062492      0.054851     -0.051974
O	      8.32028      4.25213      6.29905        -0.123585     -0.186171      0.061451
O	      2.15430      4.18527      4.28189        -0.114400      0.066093      0.092810
O	      4.24256      6.22756      4.24962        -0.163078      0.049683     -0.073040
O	      4.34087      4.07158      6.40717         0.062066     -0.023895      0.053643
O	      6.47470      6.15141      6.34263         0.007009     -0.041132      0.054031
O	      6.51106      4.12807      8.29729         0.075883     -0.021996     -0.047217
O	      8.53549      6.10728      8.33069         0.000592     -0.140334     -0.075196
O	      2.15080      6.18757      6.27599        -0.071485     -0.061494     -0.097934
O	      4.28145      8.31671      6.20282         0.057798      0.082951      0.000393
O	      6.28617      8.41475      8.62787        -0.056895     -0.003434      0.119752
O	      6.40667      6.49817     10.56610         0.039741      0.062944     -0.072693
O	      8.30858      8.34733     10.49249        -0.132209     -0.011265     -0.063611
