# total energy = -219.89918219 eV
 
CRYSTAL
PRIMVEC
0.024822 6.308364 6.531429 
6.113962 0.023490 6.533236 
4.081687 4.212744 0.009814 
PRIMCOORD
36 1
Li	      4.07346      4.17555      0.09925         0.063631      0.036959      0.043229
Li	      6.08753      4.27403      2.35925        -0.022584     -0.009679     -0.021943
Li	      6.08616      2.21169      4.47150         0.062249     -0.057940      0.055394
Li	      4.07868      6.28302      2.19815         0.038129      0.010652     -0.019869
Li	      8.23821      4.23639      8.60654        -0.053077      0.003408     -0.013504
Li	      4.15346      4.22123      4.15064        -0.027099      0.026784     -0.020106
Li	      6.09433      4.25173      6.49705         0.002785     -0.018916      0.017457
Li	      4.11577      6.34405      6.42418        -0.010509     -0.028064     -0.067548
Li	      8.21590      8.40360      8.75040        -0.003897     -0.024893      0.012777
Sc	      4.07439      8.33229      4.30211        -0.030001     -0.056863     -0.073147
Sc	      6.13304      6.30884      8.73923         0.029827      0.005571      0.022322
V	      8.05895      2.25915      6.52919        -0.076327     -0.072673     -0.094285
V	      2.23684      4.29204      6.55763         0.147950      0.081570      0.028812
Co	      4.00440      2.18765      2.21488         0.085424      0.111026     -0.086051
Co	      8.12765      4.28358      4.39523        -0.008399     -0.010820     -0.019564
Cu	      6.12263      6.21662      4.39111        -0.063731      0.050829      0.032707
Cu	      8.21771      6.28580     10.76020        -0.110144     -0.040672      0.016197
Ni	      8.24497      6.27406      6.57932         0.121110      0.018904      0.115402
O	      2.12460      2.11805      1.94159        -0.017476      0.013211      0.049388
O	      4.06014      4.01819      2.16522        -0.023956     -0.171677      0.030889
O	      4.05513      1.99680      4.49460         0.005042     -0.019600     -0.114847
O	      6.21487      4.30200      4.41355         0.027170     -0.015606      0.001143
O	      6.25084      2.08333      6.56754         0.149680      0.024655     -0.018854
O	      8.14625      4.17134      6.36278         0.011630      0.020612      0.052923
O	      2.05422      3.99975      4.66635         0.081305     -0.051113     -0.052481
O	      4.08433      6.26068      4.30712         0.143785      0.029489      0.055432
O	      3.98664      4.22463      6.63553         0.044426      0.036309      0.026976
O	      6.16460      6.52833      6.66755        -0.165746     -0.006194     -0.023597
O	      6.12182      4.29616      8.78371        -0.000759      0.044887      0.003373
O	      8.20159      6.35400      8.73622        -0.048430      0.005880     -0.180926
O	      2.05593      6.11015      6.34303        -0.042018     -0.077171      0.059734
O	      3.94471      8.36136      6.44149        -0.064541     -0.033400      0.021000
O	      4.05730      6.53408      8.95902        -0.011139      0.071145      0.042960
O	      6.00623      8.48425      8.43454        -0.053970     -0.031040      0.117768
O	      6.16115      6.31974     10.82965        -0.144521     -0.005348      0.030641
O	      8.12551      8.61810     11.00534        -0.035819      0.139779     -0.029804
