# total energy = -219.99830086 eV
 
CRYSTAL
PRIMVEC
0.039377 6.219127 6.366879 
6.426453 0.020038 6.386440 
4.264106 4.138924 0.032902 
PRIMCOORD
36 1
Li	      6.30336      0.10515      6.24598        -0.021010     -0.021061     -0.066859
Li	      4.35086      8.22111      8.56351         0.001976     -0.020154      0.006576
Li	      4.48190      6.24111     10.65962         0.026674      0.021082     -0.001588
Li	      6.37867      2.06234      4.32963        -0.006032     -0.002801     -0.001640
Li	      6.27679      2.15651      8.38020         0.009541      0.025666     -0.016456
Li	      6.46620      4.10310      6.53502         0.018812      0.008358      0.042806
Li	      8.46805      6.21090     10.47663        -0.024943     -0.028579     -0.014028
Li	      2.16895      4.25645      6.32002        -0.010757      0.005078     -0.035763
Li	      6.59614      6.17596      8.66016        -0.004472     -0.004636      0.061778
Sc	      8.42032      2.15762      6.30794         0.030618      0.021697     -0.056817
Sc	      2.24618      2.12798      4.18287         0.022194     -0.015932      0.075853
V	      6.18237      4.01594      2.13578         0.145484     -0.063010     -0.006455
V	      4.46796      6.20154      6.52576        -0.005124      0.082099     -0.098813
Co	      4.29051      4.17381      4.26252        -0.137253     -0.002168      0.034346
Co	     10.64615      8.32919     10.64704         0.048261      0.043998      0.076506
Ni	      8.48362      4.24594      8.50141         0.039223     -0.032612      0.051113
Ni	      4.43228      2.06478      6.39708        -0.104998      0.076459     -0.074612
Ni	      8.62366      8.23677      8.63883        -0.123315      0.107922     -0.064569
O	      2.17739      1.94621      2.12638        -0.017794     -0.063677     -0.038983
O	      4.43334      4.09591      2.07129        -0.154851     -0.024680     -0.050636
O	      4.26470      2.14371      4.34528         0.015129     -0.045182     -0.148643
O	      6.33722      4.17518      4.02816        -0.026003     -0.008711     -0.014925
O	      6.43932      2.11533      6.36165         0.067294      0.009531      0.026591
O	      8.53472      4.17531      6.49039        -0.010429     -0.084069     -0.159947
O	      2.29067      4.17214      4.15928         0.154140     -0.014994      0.114022
O	      4.32607      6.25818      4.51229         0.035140     -0.000049     -0.032859
O	      4.29349      4.34551      6.41163         0.025525      0.089741     -0.045475
O	      6.26195      6.22665      6.40309         0.067678     -0.005358      0.045202
O	      6.44797      4.12675      8.70913        -0.017911      0.013252      0.091012
O	      8.56302      6.26357      8.42065         0.009658     -0.173950      0.067268
O	      2.28979      6.23687      6.61095         0.020354     -0.063528      0.005089
O	      4.28100      8.08239      6.29973        -0.026632     -0.013688      0.024145
O	      4.25304      6.21817      8.34446         0.020108      0.135745      0.064060
O	      6.47409      8.47118      8.52089        -0.082384      0.107345     -0.018421
O	      6.46313      6.02008     10.65876         0.005903     -0.034356      0.013682
O	      8.56779      8.27890     10.65105         0.010195     -0.024779      0.147440
