# total energy = -222.38949203 eV
 
CRYSTAL
PRIMVEC
-0.036599 6.366093 6.269416 
6.211784 -0.009396 6.242342 
4.138351 4.223069 -0.003360 
PRIMCOORD
36 1
Li	      2.06172      0.10748      2.13310        -0.024633     -0.033242      0.117196
Li	      4.03894      2.14137      2.17075         0.076767      0.024809     -0.016542
Li	      4.06596      0.06495      4.15166        -0.068001     -0.078904     -0.104079
Li	      4.15673      6.29831      2.08722         0.086937      0.021067     -0.056872
Li	      2.10158      4.16687      2.01776        -0.026038     -0.085003      0.131125
Li	      2.10418      2.03290      3.98438        -0.048719     -0.094322     -0.039438
Li	      6.22736      4.27345      6.22593        -0.080694     -0.051552     -0.084730
Li	      8.24195      6.39883     10.34923         0.000343      0.038519      0.074928
Li	      6.15687      8.46951      6.34848        -0.024443      0.034443      0.155213
Sc	      2.05074      2.20434      0.11537        -0.300926     -0.360229     -0.195671
Sc	      4.12097      4.24805      4.02789         0.425304      0.027169     -0.003203
V	      0.10121      4.25179      4.13626        -0.269116      0.043359     -0.085942
V	      4.10419      6.28964      6.30338        -0.350772      0.127357     -0.120868
Co	      6.16498      2.19710      4.14453         0.407751     -0.024472     -0.335250
Co	      8.22379      6.25761      6.23862         0.574368     -0.202006     -0.367558
Co	      8.26149      8.45213      8.36269        -0.286304      0.237981      0.221068
Cu	      6.19614      6.34978      8.37739        -0.230323      0.180776      0.136142
Ni	      4.16354      4.19586      0.05336         0.237447      0.024661     -0.078675
O	      2.05112      2.12696      2.04644         0.017431      0.094720     -0.234431
O	      4.13409      4.23615      2.06635        -0.103099      0.001884      0.146458
O	      4.15210      2.16166      4.19642        -0.994974     -0.083326      1.287296
O	      6.16962      4.14319      4.16616        -0.234770      0.591800      0.094133
O	      6.22733      1.99678      6.06876        -0.702623      0.100023      1.255132
O	      8.29908      4.23829      6.24930        -0.112405      0.824922      0.018924
O	      1.90479      4.24102      4.12659         0.174430      0.025234     -0.005702
O	      4.13345      6.40548      4.28253        -0.004970     -0.134786      0.071742
O	      4.07498      4.32044      6.36044         0.037128     -0.297373     -0.011402
O	      6.00903      6.37545      6.35466         0.594234     -0.073875     -0.174591
O	      6.07035      4.31681      8.41667         0.101174     -0.174336     -0.017260
O	      8.19677      6.52536      8.26758         0.178884     -0.106863     -1.062149
O	      2.21597      6.37968      6.29771         0.198750      0.062879     -0.002786
O	      4.12708      8.40853      6.15499        -0.083733     -0.097434      0.067086
O	      4.16203      6.19889      8.29933         0.029078     -0.130900     -0.022519
O	      6.32544      8.34594      8.51765         0.310202     -0.150062     -0.701343
O	      6.20943      6.21746     10.43130         0.051517     -0.245365      0.003787
O	      8.39405      8.42972     10.32566         0.444800     -0.037552     -0.059218
