# total energy = -222.90404798 eV
 
CRYSTAL
PRIMVEC
0.060847 6.316167 6.194392 
6.422105 -0.017734 6.274462 
4.274730 4.256101 -0.005530 
PRIMCOORD
36 1
Li	      0.04232      0.03251      0.01309        -0.046854      0.035733      0.024005
Li	      2.18378      8.36968      6.24825         0.018542      0.009707      0.089966
Li	      8.48679      4.27565      4.17120        -0.015710      0.044291      0.023904
Li	      6.53858      8.36206     10.34618        -0.017403     -0.078916      0.047389
Li	      4.34136      6.24410      2.10275         0.008659     -0.007159     -0.020838
Li	      2.25170      4.21747      2.10817         0.067554      0.025168     -0.010941
Li	      4.36747      4.30881      4.05318         0.030781     -0.032711      0.041316
Li	      6.42437      4.23994      6.19623        -0.004863     -0.062098     -0.014365
Li	      8.51804      6.33958     10.40907        -0.067621      0.013963      0.011876
Sc	      6.46219      4.24565     10.39556        -0.034642      0.059534      0.049362
Sc	      2.17523      4.27510      6.20606        -0.052213      0.004480     -0.099574
V	      4.46230      1.91817      6.19512         0.316414      0.068290     -0.331177
V	      8.62189      8.42524      8.33283         0.061752     -0.028930     -0.043124
Co	      4.20495      2.24535      2.08925        -0.100257      0.058941      0.435367
Co	      6.41172      6.32513      4.17909         0.233446      0.062862      0.031984
Co	      6.43991      6.30639      8.33753        -0.018660     -0.043082      0.047346
Cu	      6.35470      4.31597      2.13451         0.016694     -0.096523      0.017225
Cu	      4.29176      6.33996      6.16795         0.109040      0.038505     -0.006181
O	      2.18375      2.04962      2.25195         0.302947      0.236106     -0.035933
O	      4.38177      4.21425      2.10263        -0.136657     -0.125029     -0.114256
O	      4.13129      2.11049      4.35521        -0.055247     -0.007001      0.127955
O	      6.44778      4.41823      4.09710        -0.014019      0.065802      0.150771
O	      6.21197      2.10468      6.18181        -0.135496     -0.046483     -0.035449
O	      8.56131      4.43527      6.30132        -0.040788     -0.122437      0.002855
O	      2.12594      4.10838      4.15331         0.000736     -0.000296     -0.019378
O	      4.46630      6.35077      4.24511        -0.051114     -0.065536     -0.157265
O	      4.26800      4.03299      6.39563         0.026158     -0.080270     -0.021191
O	      6.53260      6.36150      6.19038        -0.071230     -0.041217      0.053632
O	      6.28452      4.16759      8.30107         0.035779      0.087172      0.046691
O	      8.54816      6.40946      8.13825        -0.129312      0.008595      0.146168
O	      2.24534      6.33513      6.26335        -0.016139      0.072365     -0.082498
O	      4.36018      8.53195      6.20979        -0.054881      0.115137     -0.319900
O	      4.32287      6.21284      8.16646         0.054193      0.060016      0.091909
O	      6.54336      8.49560      8.32750        -0.162546     -0.238731      0.005491
O	      6.48605      6.27543     10.32776        -0.008233      0.027181     -0.206397
O	      8.61245      8.41027     10.17357        -0.048812     -0.017432      0.073254
