# total energy = -221.82140596 eV
 
CRYSTAL
PRIMVEC
0.030361 6.288199 6.261724 
6.304755 0.032593 6.259760 
4.224296 4.211953 0.000695 
PRIMCOORD
36 1
Li	      4.22727      4.16192      0.13471        -0.019070      0.055211     -0.029716
Li	      4.16355      2.17291      2.00247        -0.020345      0.010382     -0.004512
Li	      4.32459      6.15809      2.06048        -0.033357      0.023723     -0.051316
Li	      2.24676      4.18915      2.02939         0.054460      0.008265     -0.039902
Li	      4.24994      4.21239      4.12794        -0.046197      0.001785      0.025446
Li	      8.31047      6.32208      6.24880         0.000848     -0.001417     -0.012305
Li	      6.31339      8.26709      6.30780        -0.025613     -0.094563      0.021110
Li	      4.30171      6.32445      6.26338         0.044471     -0.058661     -0.000865
Li	      6.31406      6.32795      8.26096         0.028046      0.003622     -0.058948
Sc	      6.13830      2.15681      4.17865        -0.057079     -0.097918      0.119696
Sc	      4.21444      4.25256      8.22182         0.089655     -0.041231     -0.261659
V	      0.07743      4.18704      4.21157        -0.078062      0.078626      0.156823
V	      2.19927      6.22965      4.19563         0.016170     -0.021114      0.069670
Co	      8.39465      2.16466      6.27647        -0.052020      0.069326     -0.008235
Co	      4.18845      0.08252      4.17095         0.284058      0.006522     -0.004988
Co	      6.35278      4.24995      6.28097         0.054385     -0.065884     -0.214872
Ni	      2.08505      6.32244      8.27695         0.110358     -0.003487     -0.209236
Ni	      6.35774      6.29451      4.19700        -0.040517      0.146697      0.051188
O	      2.11930      1.98844      1.93584        -0.014228      0.068337     -0.031319
O	      4.38535      4.20679      2.05351        -0.179587     -0.035863      0.038375
O	      4.16756      2.09492      4.21271         0.094206     -0.061926     -0.091652
O	      6.31861      4.24046      4.12809        -0.037596      0.002849      0.936838
O	      6.45439      2.29526      6.26799         0.071158      0.133201     -0.038733
O	      8.31036      4.11313      6.27594        -0.269717     -0.098657     -0.185040
O	      2.03310      4.25901      4.26774        -0.033751      0.050355     -0.008262
O	      4.20170      6.42944      4.18262        -0.039122     -0.010904     -0.002819
O	      4.40724      4.16337      6.26464         0.077257      0.047338      0.085783
O	      6.34314      6.15838      6.25471        -0.021395     -0.105389      0.045497
O	      6.28167      4.30151      8.59650         0.098982     -0.043916     -0.544087
O	      8.44695      6.36495      8.62268         0.014569     -0.048404      0.024852
O	      2.13884      6.45931      6.09402         0.006273      0.016822      0.023627
O	      4.09341      8.43454      6.06630         0.007379     -0.018413      0.014368
O	      4.07930      6.29417      8.37680        -0.044439     -0.010178      0.113700
O	      6.37185      8.48630      8.32618        -0.051843      0.061926      0.067713
O	      6.42728      6.30595     10.46902        -0.045450     -0.006243     -0.014380
O	      8.47144      8.38172     10.51535         0.057113      0.039182      0.018162
