# total energy = -224.58074619 eV
 
CRYSTAL
PRIMVEC
-0.006548 6.255443 6.418292 
6.363090 -0.003714 6.416876 
4.241747 4.167561 -0.001603 
PRIMCOORD
36 1
Li	      6.47939      6.27323     12.67271        -0.017752      0.011764      0.131549
Li	      8.48338      8.36345     12.67854        -0.053076      0.090515      0.117185
Li	      6.60067      8.17382     10.64437        -0.067404      0.148962     -0.000991
Li	      8.42337      4.08726      8.44968        -0.010768      0.015389     -0.051291
Li	      8.38594      6.18510      6.40139        -0.009170      0.017297      0.034171
Li	      8.36171      6.43142     10.89427         0.156166     -0.124191      0.020593
Li	      4.27757      6.22643      6.50311         0.028541     -0.031933     -0.018001
Li	      4.30585      4.20891      8.63435         0.000664     -0.011637     -0.119736
Li	      6.34006      6.33417      8.79065        -0.014091      0.021084     -0.150306
Sc	      2.16927      6.23309      8.47290        -0.034609     -0.065187     -0.017716
Sc	      4.13828      4.17574      4.37808         0.127451     -0.001339      0.240696
V	      4.24311      8.30443      8.44592        -0.053111      0.015282     -0.240049
V	     10.36678      6.29986      8.43701         0.219757      0.128657     -0.164669
Co	      2.08851      2.09283      4.22130        -0.029365     -0.159032      0.064160
Co	      6.38666      4.26536      6.39206         0.025227     -0.019389      0.063705
Co	      6.35115      4.26333     10.68455         0.218820     -0.451511     -0.081512
Co	      6.38643      8.30114      6.45104         0.103608     -0.235328     -0.178316
Cu	      4.36597      6.21408     10.78161        -0.054252      0.237510      0.198798
O	      2.16960      2.08204      2.23930         0.089198     -0.074973      0.102126
O	      4.26162      4.21448      2.20782         0.019308     -0.070100     -0.000308
O	      4.06643      2.05796      4.12317         0.014525     -0.000120     -0.080843
O	      6.25905      4.28174      4.26205         0.216896      0.077739     -0.310280
O	      6.38210      2.01094      6.67672        -0.022088     -0.038223      0.189356
O	      8.19695      4.17280      6.39037         0.182705      0.019095      0.042045
O	      2.06954      4.03670      4.31011        -0.072694      0.024248      0.285563
O	      4.37221      6.27105      4.03828         0.000448     -0.032052      0.010376
O	      4.38419      4.11693      6.40319        -0.066592      0.041832     -0.131870
O	      6.29649      6.26559      6.15586        -0.028955      0.614326     -0.055629
O	      6.35747      3.94431      8.49981        -0.087514     -0.088437      0.239216
O	      8.65823      6.20615      8.56351        -0.178408      0.021863      0.085603
O	      2.20124      6.15737      6.46659        -0.078121     -0.298183     -0.117857
O	      4.18382      8.41556      6.66295        -0.095475     -0.008443      0.005550
O	      4.24773      6.37441      8.55644         0.023157      0.066701     -0.085939
O	      6.20884      8.32626      8.60445         0.127188      0.018353     -0.109882
O	      6.43922      6.24906     10.72596        -0.611959      0.095074      0.069444
O	      8.56742      8.43403     10.69196         0.031745      0.044387      0.015058
