# total energy = -91.12620900 eV
 
CRYSTAL
PRIMVEC
2.161657 4.419936 2.133569 
4.248631 -2.177983 -2.121580 
0.005794 4.442175 -4.316460 
PRIMCOORD
16 1
Li	      2.23936      2.42234     -0.09626        -0.045304      0.234025     -0.217343
Li	      2.29740      0.26994     -2.18786        -0.509468      0.235140     -0.026847
Li	      4.44077      2.36941     -2.19699        -0.148831      0.200449     -0.014078
Li	      2.30450      4.53114     -2.18534         0.162148     -0.536438     -0.034231
Mn	      0.11265      0.21505      0.04076         1.462284     -2.337543     -4.100555
Mn	      2.21634      2.33181     -4.45873        -0.026384      1.559444      2.605367
Ni	      0.02127      2.28607     -2.20583         1.596833     -0.325146     -0.031382
Ni	      4.44092      4.67365     -4.50679        -0.273251     -0.354304      0.792811
O	      4.48202      4.85552     -2.29942        -0.859456     -0.252562     -0.515434
O	      4.34088      2.38136     -4.57706        -0.682641      0.541955      1.991001
O	      4.57825      2.26657      0.09933        -0.507335      0.187513     -0.854298
O	      4.49031     -0.19966     -2.20054        -0.416438      2.645661      0.536893
O	      2.19755      4.65132      0.12966        -0.496044     -0.083952      0.126742
O	      2.24917      2.33513     -2.39469        -0.007884      0.291086     -1.040649
O	      2.34773      7.09291     -2.26180         0.375140     -1.186236      0.113705
O	      2.14081      4.47960     -4.49949         0.376631     -0.819092      0.668296
