# total energy = -215.01647662 eV
 
CRYSTAL
PRIMVEC
0.032389 6.331373 6.213091 
6.324427 0.030380 6.214974 
4.241449 4.247281 -0.004843 
PRIMCOORD
36 1
Li	      0.12811      6.31473      6.24425         0.097001     -0.100659      0.040604
Li	      8.37677      2.11553      6.19688        -0.105669     -0.022907     -0.004348
Li	      6.25956      4.27971      2.04534        -0.136416      0.056820      0.022346
Li	      4.25645      6.35568      2.08909        -0.034991     -0.003782      0.024202
Li	      6.32246      6.35136      4.11524        -0.029047     -0.080231     -0.015232
Li	      4.29667      4.22904      4.16198         0.050266     -0.004822      0.008130
Li	      4.30291      2.21406      6.17296         0.018234      0.076465     -0.032120
Li	      4.23335      8.39708      4.16490        -0.079594     -0.024032     -0.002032
Li	      8.50593      8.46567      8.28836         0.038876      0.023694      0.022281
Sc	      8.41480      4.23734      4.23636         0.003059     -0.007346      0.018576
Sc	      4.18430      6.37116      6.10626         0.054979     -0.012152      0.016697
V	      2.24595      4.09317      2.11417        -0.099532      0.113762     -0.022093
V	      6.44901      6.38093      8.27934         0.056972     -0.071350     -0.035483
Cu	      6.27105      4.16777      6.19995         0.022303      0.122094      0.020939
Ni	      6.32580      2.18495      4.20438        -0.007484     -0.147878     -0.017069
Ni	      8.50598      6.46147     10.37593        -0.006882     -0.007477     -0.004170
Ni	      4.27859      8.46422      8.28066        -0.035319     -0.019240     -0.023899
Ni	      2.13778      4.25593      6.17356         0.085237     -0.012517     -0.161326
O	      6.31615      2.22511      6.22123        -0.020230     -0.037007      0.138438
O	      2.12440      2.32395      2.08147        -0.061411     -0.126707     -0.022131
O	      4.01976      4.26423      2.03671         0.137554      0.023590     -0.016652
O	      4.27946      2.06943      4.06495        -0.084578      0.024398      0.171390
O	      6.35928      4.26137      4.19608        -0.064604      0.047839     -0.229794
O	      8.39631      4.28851      6.36895         0.094714      0.024954      0.014662
O	      2.10012      4.28507      3.93481        -0.036285      0.004515      0.005588
O	      4.21792      6.38588      4.11950         0.107275      0.009264     -0.046269
O	      4.23558      4.25818      6.24439        -0.093395     -0.005323     -0.062394
O	      6.35135      6.38724      6.36775         0.038824     -0.046515     -0.097685
O	      6.47099      4.41671      8.19710        -0.013322     -0.013427      0.099777
O	      8.29510      6.27574      8.30490         0.043818      0.055406     -0.116991
O	      2.13990      6.27692      6.23612        -0.032524      0.127042      0.159043
O	      4.34819      8.45130      6.26983        -0.056770      0.033517     -0.114364
O	      4.44948      6.34673      8.31462         0.010715     -0.124922      0.003851
O	      6.38139      8.26155      8.25833         0.082263      0.040329      0.055800
O	      6.37093      6.35650     10.17751        -0.032427     -0.008825      0.146181
O	      8.42230      8.49755     10.33879         0.088389      0.093430      0.055547
