# total energy = -212.88991322 eV
 
CRYSTAL
PRIMVEC
0.057867 6.293574 6.106589 
6.475402 0.032904 6.130842 
4.343784 4.238050 -0.004710 
PRIMCOORD
36 1
Li	     10.68164      4.23947      6.08762         0.041747      0.078140      0.023261
Li	      8.74281      8.56863     12.12901        -0.032944     -0.021276      0.040583
Li	      8.64548      4.27562      4.21321        -0.033384      0.019675     -0.024105
Li	      8.57769      4.29893      8.12763        -0.031646     -0.027153     -0.002587
Li	      4.26841      4.24717      4.27922         0.023952     -0.026392     -0.127687
Li	      8.57640      6.41682      6.07996         0.030867     -0.040005      0.060494
Li	      6.47060      4.32912      6.11463         0.008609     -0.068120      0.011588
Li	      2.33934      4.09954      6.04048        -0.005539      0.027269      0.074192
Li	      4.47134      6.20332      6.04690         0.017977      0.066627      0.024143
Sc	      4.22080      2.24330      1.97444         0.045632      0.125798     -0.052652
Sc	      6.46348      2.16141      4.19162        -0.102698      0.062190      0.016009
V	      2.25901      6.31693      8.02120        -0.143004     -0.040191     -0.049067
V	      6.41415      2.16214      8.11853         0.000864     -0.190521     -0.092544
Cu	      4.38267      4.24726      8.10078         0.030186      0.004048      0.122130
Cu	      6.55088      6.25228      8.06848        -0.004951      0.011614      0.040537
Ni	      4.42256      8.44494      4.13507        -0.079799      0.027775      0.040595
Ni	      2.23059      6.23171      4.13996         0.063733     -0.035169      0.102422
Ni	      6.55955      6.35750      4.19826         0.055770     -0.069878     -0.070580
O	      4.37830      4.22830      6.24515         0.028920     -0.023273      0.058136
O	      6.55892      6.30194      6.21175        -0.037395     -0.002837      0.076214
O	      2.08308      1.96185      2.10043         0.098980      0.029361     -0.033016
O	      4.53405      4.37302      2.03465         0.032263     -0.021794      0.018843
O	      4.36760      2.14238      4.06698         0.091128     -0.005839     -0.008838
O	      6.51972      4.23567      3.94418         0.015744     -0.096097     -0.002776
O	      6.57474      2.10040      6.28809        -0.012734      0.061640     -0.110262
O	      8.72062      4.21977      6.15776        -0.011876     -0.015219     -0.005214
O	      2.14535      4.17918      4.08204         0.079741      0.044589      0.001140
O	      4.40781      6.32985      3.93833        -0.078867     -0.018440      0.034330
O	      6.58385      4.01192      8.17900         0.051962      0.068375     -0.058254
O	      8.97533      6.27178      8.18526        -0.018869     -0.023628     -0.076281
O	      2.18662      6.32238      6.25383         0.034149      0.006916      0.014407
O	      4.26176      8.51983      6.10214        -0.032509     -0.020757      0.127623
O	      4.09978      6.39796      8.12952         0.023344      0.013416     -0.036867
O	      6.40948      8.63168      8.15788        -0.142735      0.037394     -0.007772
O	      6.61444      6.33668     10.00103        -0.012707      0.039802      0.005350
O	      8.67747      8.35915     10.06582         0.006089      0.021958     -0.133493
