# total energy = -214.95316892 eV
 
CRYSTAL
PRIMVEC
-0.033988 6.319300 6.349132 
6.304723 -0.006303 6.320581 
4.203320 4.194536 -0.004627 
PRIMCOORD
36 1
Li	      4.27452      4.16755      0.11022         0.016406      0.014019     -0.028513
Li	      6.17822      4.17201      2.05579        -0.024700      0.032532     -0.000760
Li	     10.37474      6.25265      8.49660         0.091138     -0.007942     -0.000172
Li	      4.06334      4.35150      4.17330         0.025451     -0.005540      0.000719
Li	      8.36279      6.37872      6.48255         0.034783     -0.020186     -0.079875
Li	      0.08114      4.14972      4.18495        -0.016303      0.020508      0.096889
Li	      2.20639      6.16047      4.12301        -0.008196      0.012982      0.061529
Li	      8.39380      8.22249      8.42538        -0.020621     -0.078153      0.038658
Li	      6.49213      6.21985      8.37722        -0.040409      0.014322      0.006934
Sc	      2.04771      2.16140      4.20342         0.016943      0.065912     -0.032378
Sc	      4.11937      6.27598      6.39726        -0.153867      0.171385      0.039607
V	      4.36437      6.20392     10.48202        -0.126964      0.052978      0.009434
V	      6.23851      2.16807      4.17783        -0.003590     -0.122241     -0.022307
Cu	      8.41214      4.25467      8.40483        -0.006856     -0.178248      0.098155
Cu	      6.29564      4.19543      6.36934        -0.235834      0.086476     -0.045725
Cu	      6.26456      8.44661      6.36689         0.059723      0.027634      0.071706
Ni	      2.07928      8.39386      6.35103         0.045222     -0.032750     -0.012039
Ni	      4.18458      2.19489      2.10640         0.006491     -0.058042     -0.005507
O	      6.50917      4.19214      8.27978        -0.095093      0.044818     -0.090091
O	      8.42396      6.11222      8.44044         0.012064      0.180886     -0.019596
O	      2.11308      2.29812      2.05983        -0.138773      0.052935      0.140639
O	      3.99533      4.20802      2.13606         0.100671      0.159588      0.017577
O	      4.25297      1.95571      4.20124        -0.000535     -0.028299      0.098681
O	      6.34546      4.16571      4.25611        -0.031744      0.019266      0.039563
O	      6.38638      2.06198      6.01599        -0.054125     -0.066399     -0.027265
O	      8.37154      4.13787      5.96043         0.010554      0.039500     -0.030332
O	      2.07953      4.20021      4.39931         0.021420     -0.053815     -0.113106
O	      4.24566      6.32335      4.32802        -0.008400     -0.008651     -0.021705
O	      4.12889      4.21491      6.46998         0.197010     -0.112697     -0.034953
O	      6.25593      6.38208      6.32015         0.135317     -0.068105      0.154218
O	      2.06266      6.32451      6.42581         0.056358     -0.018371      0.003593
O	      4.18293      8.40977      6.43276        -0.072811     -0.068341     -0.130894
O	      4.10488      6.38696      8.64786        -0.038260     -0.034614     -0.032844
O	      6.22969      8.44371      8.66606         0.118718      0.007524     -0.041302
O	      6.12304      6.36321     10.49226         0.108114      0.003418     -0.024296
O	      8.32292      8.56413     10.47478         0.020699     -0.044288     -0.084241
