# total energy = -214.45492856 eV
 
CRYSTAL
PRIMVEC
-0.036970 6.644240 6.134502 
6.321042 -0.003799 6.101130 
4.190631 4.384314 0.020224 
PRIMCOORD
36 1
Li	      0.02974      6.48533      5.99674        -0.009197     -0.055820      0.045746
Li	      4.29066      8.76808      8.08762         0.001806      0.037672      0.030978
Li	      6.29824      8.66889     10.15226         0.016199     -0.024672      0.058405
Li	      6.34330      2.22135      8.09867        -0.039977      0.038439     -0.018788
Li	      6.31993      4.47480      6.06549        -0.023975      0.002119      0.042469
Li	     10.39545      8.99530     10.31545        -0.012009      0.025751     -0.031452
Li	      1.92151      6.65138      4.29065         0.038473      0.000155     -0.053803
Li	      6.13231      8.77876      6.18308        -0.011555      0.056913      0.005505
Li	      4.12496      6.87207      6.19702        -0.002580     -0.001642     -0.012964
Sc	      8.30113      4.32110      8.11979        -0.013864      0.173249     -0.055711
Sc	      8.39187      8.80240      8.27131         0.007165     -0.018765      0.048532
V	      4.18402      4.60165      4.09517        -0.058540     -0.082105      0.127429
V	      4.33712      2.20851      6.01445         0.167559     -0.058626      0.072893
Cu	      2.20305      8.62453      6.12574        -0.129411     -0.040419      0.042659
Cu	      6.24812     10.97690      8.15633        -0.006525     -0.202250     -0.294431
Cu	      4.22889      6.57604     10.18972         0.146635     -0.061139      0.086919
Cu	      6.25904      6.67538      8.14875         0.130524      0.032729     -0.142248
Ni	      6.30376      6.58761      4.11172         0.028995      0.116955      0.056847
O	      2.00399      6.64748      6.23776         0.030512     -0.033075      0.047485
O	      6.20431      6.63064     10.07279        -0.042463      0.008142      0.330410
O	      2.04251      2.29558      1.97399         0.062874     -0.050534      0.139508
O	      4.14044      4.44434      2.27506         0.056883     -0.007211      0.050377
O	      4.16554      2.41387      4.17941        -0.059758      0.144742     -0.109793
O	      6.16949      4.48563      4.01222         0.024736      0.034494      0.046775
O	      6.09141      2.21156      6.07163         0.055478      0.054721      0.041054
O	      8.39932      4.67255      6.02941        -0.015226      0.051824      0.035900
O	      2.29976      4.38793      4.10473        -0.093932     -0.054429      0.035848
O	      4.22029      6.34835      4.22528        -0.028443      0.091194      0.007675
O	      4.27805      4.22153      6.02777        -0.021385      0.064067     -0.057680
O	      6.51070      6.62462      6.15925        -0.145454      0.038078     -0.153561
O	      6.29852      4.34871      8.19201         0.083959     -0.006197     -0.013360
O	      8.40021      6.60185      7.99190         0.065699     -0.036528     -0.055592
O	      4.10930      8.86501      6.13927         0.120804     -0.034574      0.035927
O	      4.20076      6.55073      8.23092        -0.244507      0.017416     -0.131846
O	      6.33091      8.83838      8.16667        -0.059957     -0.070937     -0.008307
O	      8.35045      8.69165     10.30900        -0.019541     -0.149736     -0.249804
