# total energy = -214.24497922 eV
 
CRYSTAL
PRIMVEC
-0.045664 6.740681 5.996977 
6.416994 -0.020376 5.969557 
4.272260 4.470205 -0.009571 
PRIMCOORD
36 1
Li	      4.27276     11.00360      6.13432         0.022478     -0.052810      0.009047
Li	      8.32740      2.20224      6.13006         0.029568     -0.017772     -0.036226
Li	      2.04874      0.02462      1.89369        -0.000664      0.078296      0.016050
Li	      4.19871      2.40810      1.92779        -0.017376      0.000971      0.051074
Li	      6.57230      2.41433      4.00526        -0.028188      0.022607     -0.040004
Li	      0.23728      2.00468      1.99164        -0.072774     -0.028786     -0.014925
Li	      2.40799      4.23903      1.94632         0.044252      0.046851     -0.002827
Li	      4.27266      6.89902      6.05144        -0.047867      0.038766      0.053235
Li	      6.28591      6.77761      7.90595         0.026743     -0.037790      0.013326
Sc	      8.59750      6.64630      6.16607         0.087970      0.019342      0.029503
Sc	      6.37631      4.44697      9.87493         0.025226      0.038531      0.084599
V	      4.45621      0.26945      3.93264         0.019545     -0.220368     -0.103534
V	      2.15102      6.81599      4.03176        -0.137759     -0.064342      0.062089
Cu	      6.30932      6.52243      3.91388        -0.032726     -0.007824      0.072374
Cu	      4.20399      4.53147      3.92127         0.082004     -0.143673      0.138242
Cu	      6.41296      4.46250      6.00430         0.018265     -0.060982     -0.026694
Cu	      6.33907      8.93787      5.96853        -0.424939     -0.011368     -0.117685
Cu	      4.13513      4.55686      7.89476         0.050481     -0.031133      0.077543
O	      1.98150      6.89161      5.80141         0.014353      0.118802      0.152598
O	      4.15095      6.76406      8.19473         0.022104      0.053301     -0.092955
O	      6.48755      8.89035      7.79425         0.169615     -0.028596      0.230815
O	      2.14774      2.30114      2.10115        -0.020482     -0.018322     -0.072851
O	      4.35113      4.47859      2.09186        -0.008310     -0.030612     -0.242786
O	      4.46840      2.01701      3.99019         0.162931      0.190318     -0.040046
O	      6.72185      4.41673      4.14159         0.142578     -0.044154     -0.117945
O	      6.33455      2.58506      6.05427         0.013658     -0.222693      0.008243
O	      8.74274      4.57938      5.83279         0.110961     -0.053925      0.092625
O	      2.07107      4.68092      4.09594         0.085745      0.178773     -0.066956
O	      4.07724      6.84400      3.97991        -0.089641      0.025551      0.006008
O	      3.93499      4.29985      5.86096         0.161665      0.163869     -0.051054
O	      6.39725      6.36704      5.84825        -0.008002      0.075693      0.013936
O	      6.07521      4.58145      7.81325        -0.119355      0.032190      0.079348
O	      8.34132      6.52085      8.16043         0.005918     -0.090631     -0.162765
O	      4.47239      8.93538      5.96693        -0.205643      0.003761      0.046511
O	      6.21734      6.60069      9.93177         0.044842      0.016622     -0.005557
O	      8.54433      8.81598      9.91232        -0.127175      0.061537     -0.042354
