# total energy = -213.77248198 eV
 
CRYSTAL
PRIMVEC
0.043295 6.371452 6.152373 
6.313055 0.054672 6.140742 
4.247766 4.278942 -0.002859 
PRIMCOORD
36 1
Li	     10.34897      4.30653      6.13516        -0.017608      0.003837     -0.006568
Li	      8.48183      2.31589      6.12801        -0.040057      0.005818      0.008811
Li	      4.23112      0.17691      4.18233         0.008838      0.039195     -0.008841
Li	      8.42420      4.28473      8.15481        -0.053114     -0.018830      0.002990
Li	      2.25786      2.28700      4.13885        -0.031832      0.046025      0.022360
Li	      4.10040      4.18762      4.21586         0.033144      0.028464     -0.032947
Li	      4.15856      2.17076      5.99912        -0.010544     -0.010349      0.034370
Li	      2.25367      4.14131      6.10088        -0.000365      0.029361      0.017791
Li	      4.32836      6.35797      6.13076         0.028614      0.012952     -0.059238
Sc	      6.38059      4.38175      6.04457         0.049974      0.059620     -0.054428
Sc	      4.30825      8.56061      4.23563         0.010281     -0.006762      0.078385
V	      2.30565      6.42750      8.12300        -0.170016      0.110931      0.028989
V	     10.45554      6.30505      8.15646         0.142959     -0.100963     -0.001684
Ni	      6.30756      2.14927      4.10580         0.037245     -0.004806      0.151389
Ni	      2.15223      6.33990      4.19856         0.015431     -0.046812      0.119432
Ni	      4.22672      2.23251      2.01656        -0.050063      0.056725     -0.020805
Ni	      4.23825      4.25959      8.15963        -0.006025      0.034002      0.010157
Ni	      6.37723      6.47878      8.14772        -0.005973     -0.047103     -0.000671
O	      2.02558      1.91670      2.11717         0.004063     -0.011459     -0.015605
O	      4.32596      4.44167      2.04287        -0.005178      0.004069      0.013190
O	      4.30916      2.18407      3.98263        -0.046128     -0.004244      0.129277
O	      6.35257      4.19437      3.93419         0.031607      0.060711      0.000104
O	      6.35631      2.18366      6.33706         0.002734     -0.009086     -0.013389
O	      8.39908      4.30383      6.14132        -0.023059      0.036586      0.003693
O	      2.09473      4.33814      4.09782        -0.013783     -0.129579     -0.023614
O	      4.22185      6.44672      3.91900         0.080538     -0.010102      0.045028
O	      4.29718      4.29487      6.19464        -0.033012     -0.015794     -0.136116
O	      6.37166      6.41077      6.21205        -0.032671     -0.047797     -0.249996
O	      6.32222      4.16542      8.19561         0.048256      0.000200      0.015608
O	      8.64013      6.42441      8.19863        -0.112975     -0.066746     -0.044549
O	      2.14452      6.37042      6.36568         0.028043      0.005262     -0.014870
O	      4.20656      8.55565      6.21174         0.021378     -0.014711     -0.137507
O	      4.11937      6.41775      8.20775         0.124450      0.020628     -0.016096
O	      6.36503      8.68977      8.20603         0.051439     -0.018181     -0.099905
O	      6.41753      6.46330     10.13493        -0.113621     -0.092406      0.173423
O	      8.42250      8.41935     10.19210         0.047032      0.101342      0.081833
