# total energy = -226.15571111 eV
 
CRYSTAL
PRIMVEC
0.022243 6.369960 6.308700 
6.332615 0.061660 6.268975 
4.234930 4.233757 0.027950 
PRIMCOORD
36 1
Li	      2.14695      8.39171      6.40653         0.022590     -0.047909      0.008511
Li	      2.34828      6.32698      8.28960        -0.119632     -0.027759      0.020182
Li	      4.28716      8.24658      8.44546         0.032884      0.029149     -0.043114
Li	      4.25717      6.40138     10.26523        -0.004533      0.007073     -0.032737
Li	      8.38427      6.43329      6.36625         0.015182      0.021698     -0.032814
Li	      2.13547      6.29068      4.30262        -0.017256     -0.016559      0.032919
Li	      2.26384      4.32652      6.34678         0.040903      0.013983     -0.006109
Li	      4.13465      6.32814      6.43272        -0.035278      0.011517     -0.068147
Li	      6.25325      6.45986      8.30140        -0.029762     -0.021198     -0.002538
Sc	      4.33433     10.55634      6.42658         0.193427      0.008124      0.198995
Sc	      6.28372      2.23450      8.34155         0.125847     -0.061699      0.080464
Ti	      2.28412      2.12822      4.26649         0.160155     -0.106563      0.042772
Mn	      6.29424      2.19883      4.15791         0.028223     -0.014497      0.001102
V	     10.42332      8.58432     10.59213        -0.108333     -0.063718     -0.323886
Co	      8.42354      4.34997      8.38102         0.049964      0.122212     -0.224905
Cu	      4.24110      4.27290      4.28030         0.058235      0.003702     -0.248199
Ni	      6.36609      4.34612      6.29000         0.090382     -0.008065      0.075282
Ni	      4.16684      4.38197      8.27034         0.033175     -0.065785      0.066985
O	      4.26470      6.34379      8.35784        -0.016574      0.071252     -0.008873
O	      2.09171      2.30427      2.20419         0.045315      0.021226      0.052853
O	      4.18720      4.33100      2.22437         0.364690      0.037071     -0.097115
O	      4.19664      2.11072      4.17330        -0.184850     -0.145121      0.049695
O	      6.33669      4.36615      4.21691         0.137212      0.168686     -0.069850
O	      6.36852      2.16350      6.15764        -0.029427     -0.097939      0.080451
O	      8.43341      4.28200      6.48465        -0.103653      0.007120      0.329701
O	      1.98375      4.18242      4.08828        -0.044644      0.021442     -0.167140
O	      4.32841      6.60063      4.17669         0.063949      0.169646      0.030173
O	      4.31730      4.28449      6.21577        -0.111059     -0.050589      0.111750
O	      6.37981      6.42323      6.12486         0.043063      0.131394     -0.170008
O	      6.29053      4.31966      8.46558        -0.269363     -0.016525      0.049121
O	      8.47733      6.33649      8.40104        -0.107703     -0.088075      0.034082
O	      2.05287      6.34292      6.32962        -0.114682     -0.038700     -0.079992
O	      4.21674      8.47056      6.09024         0.066303      0.028695      0.269404
O	      6.39650      8.50849      8.62375        -0.087397     -0.068688     -0.102753
O	      6.33593      6.22821     10.53717        -0.030689      0.032732      0.005131
O	      8.62193      8.50921     10.44194        -0.156663      0.032668      0.138608
