# total energy = -225.93121423 eV
 
CRYSTAL
PRIMVEC
0.047285 6.381883 6.408479 
6.243624 0.095407 6.359902 
4.227768 4.287998 -0.001875 
PRIMCOORD
36 1
Li	      4.32441     10.53957      6.33426         0.045604      0.078755     -0.072819
Li	      2.33953      8.46104      6.52123        -0.049501     -0.044616      0.071020
Li	      4.07960      2.33193      1.99177        -0.038776      0.085525      0.029305
Li	      4.22701      6.45474     10.64762        -0.008354     -0.010611      0.061167
Li	      6.34041      8.57351     10.67028        -0.018468      0.004957      0.062422
Li	      4.33093      6.28110      2.17904         0.081043     -0.055125      0.035336
Li	      2.31273      4.11425      2.15513         0.060966     -0.056080      0.036951
Li	      4.25165      8.56837      4.44899         0.100491      0.062569     -0.023773
Li	      4.12367      6.63739      6.31423         0.000366     -0.084752     -0.136891
Sc	      6.29777      4.29116      6.31885         0.088107      0.036827     -0.129569
Sc	      6.19334      6.54164      8.55464         0.178236      0.011759      0.107975
Ti	      4.27946      2.09001      6.26597         0.055912     -0.128979     -0.365268
Mn	      2.17200      6.36528      4.29438         0.098357     -0.402297      0.090415
V	      8.39620      8.61919      8.62337        -0.149814      0.217693      0.975069
Co	      4.20044      4.31780      4.21510        -0.049165      0.130614     -0.038358
Cu	      2.04199      0.11503      2.13118        -0.078635      0.166928     -0.048870
Cu	      2.06077      2.17162      4.16413        -0.168909      0.221837      0.071123
Cu	      6.23330      8.63759      6.35021         0.039295      0.042923     -0.037137
O	      4.34013      8.55869      6.41625        -0.217107     -0.010846      0.077992
O	      2.09985      2.09923      2.23944         0.026661      0.065123     -0.571943
O	      4.32675      4.29120      2.33846        -0.086585     -0.110788     -0.017614
O	      4.19176      2.31289      4.39581         0.298119     -0.090147      0.240673
O	      6.14477      4.32347      4.33345         0.065958     -0.298124      0.170686
O	      6.13342      2.23214      6.40773        -0.141075      0.043040      0.048060
O	      8.35841      4.48610      6.37292         0.017150      0.144510     -0.060740
O	      2.26963      4.42366      4.13590         0.050964     -0.500884     -0.104582
O	      4.11729      6.24094      4.25064         0.099897     -0.003264      0.031247
O	      4.11976      4.17825      6.39981         0.051015      0.052902      0.362781
O	      6.39889      6.43272      6.36501        -0.039387      0.018714      0.469093
O	      6.04235      4.42506      8.42896        -0.072963     -0.007210      0.059960
O	      8.34057      6.61877      8.48154         0.051189      0.471565     -0.298890
O	      2.13297      6.40788      6.16879         0.045504     -0.069639      0.278278
O	      4.15483      6.32764      8.59682        -0.174744     -0.759367     -0.127221
O	      6.50221      8.63331      8.55501         0.220358      0.028179      0.040177
O	      6.45021      6.46129     10.55310        -0.493561      0.038050     -0.204851
O	      8.43750      8.45036     10.50486         0.111851      0.710260     -1.081203
