# total energy = -90.67190158 eV
 
CRYSTAL
PRIMVEC
2.172000 4.441084 2.143778 
4.268959 -2.188404 -2.131731 
0.005822 4.463429 -4.337113 
PRIMCOORD
16 1
Li	      2.26084      2.44558     -0.09718        -0.050993      0.240659     -0.234257
Li	      2.32983      0.29378     -2.19858        -0.553609      0.261514     -0.036151
Li	      4.48337      2.39214     -2.21807        -0.150590      0.222236     -0.011297
Li	      2.32661      4.57461     -2.20630         0.169679     -0.576247     -0.036431
Mn	      0.12412      0.23837      0.05141         1.558141     -2.647578     -4.602602
Mn	      2.23761      2.35418     -4.50150        -0.074785      1.667418      2.858953
Ni	      0.02148      2.30800     -2.22699         1.730079     -0.376924     -0.039415
Ni	      4.48351      4.71848     -4.55002        -0.258369     -0.353307      0.844848
O	      4.52501      4.90210     -2.32147        -0.921856     -0.296498     -0.546603
O	      4.38252      2.40420     -4.62096        -0.667836      0.567611      2.364983
O	      4.62217      2.28831      0.10028        -0.548432      0.197271     -0.998916
O	      4.53339     -0.20157     -2.22165        -0.436108      3.019216      0.597530
O	      2.21863      4.69593      0.13091        -0.562095     -0.065109      0.069177
O	      2.27074      2.35753     -2.41766        -0.008584      0.307560     -1.075275
O	      2.37024      7.16094     -2.28349         0.354633     -1.315065      0.113363
O	      2.16134      4.52257     -4.54265         0.420726     -0.852758      0.732093
