# total energy = -229.94563749 eV
 
CRYSTAL
PRIMVEC
0.029267 6.356896 6.315684 
6.173997 0.038106 6.306857 
4.150742 4.267339 -0.010233 
PRIMCOORD
36 1
Li	     10.31597      4.32509      6.32115        -0.014970     -0.009042      0.005945
Li	      4.13946      2.15124      2.14623        -0.004380     -0.008543     -0.001491
Li	      6.19079      2.12350      4.29715         0.000823     -0.028097     -0.018946
Li	      4.16479      4.20063      4.28632        -0.064624      0.014350      0.009764
Li	      4.11984      2.17325      6.15548        -0.021968      0.061994      0.029171
Li	      6.18005      4.26943      6.22229         0.041776     -0.007205     -0.004471
Li	      8.18555      6.58546     10.58990         0.020627      0.026751      0.014787
Li	      4.14421      6.28094      6.22737        -0.023573     -0.061515     -0.060063
Li	      4.14169      4.24732      8.27773         0.027169     -0.022285     -0.091587
Sc	     10.29720      8.58363     10.59351        -0.004466      0.070355      0.107599
Sc	      6.20103      6.46889      8.31186         0.003094      0.000884     -0.081079
Ti	      2.21464      6.24455      8.37134         0.211524     -0.129581     -0.060216
Mn	      2.15760      4.20671      2.11037         0.008010      0.149580     -0.077734
V	     10.25199      6.40167      8.35019        -0.196370     -0.065687      0.084808
Co	      6.24829      6.35172      4.19755        -0.000178      0.075472     -0.037666
Co	      2.12259      4.25888      6.26947         0.030777     -0.130404     -0.181746
Cu	      8.24870      4.32105      4.28634         0.113743     -0.089603      0.052302
Ni	      2.10885      2.15162      0.03922         0.153425     -0.061785      0.090758
O	      2.01572      1.99722      2.19132        -0.029919     -0.131774      0.047981
O	      4.16979      4.39674      2.13565         0.272390     -0.115392      0.004834
O	      3.99769      1.99957      4.19165         0.008837      0.071845      0.014036
O	      6.23994      4.39112      4.07997        -0.168443     -0.012919      0.050435
O	      6.22086      2.20933      6.55480        -0.175607      0.004050     -0.033566
O	      8.30949      4.20029      6.53346        -0.038798      0.157159      0.075886
O	      2.11549      4.04244      4.13581        -0.050748      0.045057     -0.161804
O	      4.23813      6.44600      4.01373         0.046382      0.014798     -0.038524
O	      3.93403      4.25394      6.25260         0.102636      0.044793      0.090084
O	      6.20757      6.47239      6.15041        -0.080289     -0.009916      0.245884
O	      6.24461      4.27342      8.43506        -0.035200      0.010038     -0.059028
O	      8.30620      6.42589      8.46778         0.061644      0.104346      0.009408
O	      2.07036      6.40939      6.42732        -0.008968     -0.175333      0.195296
O	      4.32423      8.53389      6.31209        -0.022768      0.039153     -0.067538
O	      4.09167      6.35153      8.28822        -0.295943     -0.065578     -0.153125
O	      6.21346      8.59918      8.40433         0.009300      0.254236      0.131708
O	      6.17382      6.40116     10.40417         0.113367     -0.006798      0.018670
O	      8.25664      8.63103     10.66009         0.011687     -0.013406     -0.150771
