# total energy = -229.06552538 eV
 
CRYSTAL
PRIMVEC
-0.024843 6.251449 6.132406 
6.621581 -0.013592 6.122302 
4.414342 4.161340 -0.010090 
PRIMCOORD
36 1
Li	      4.29210      6.22181     10.08548        -0.040040      0.052635     -0.058809
Li	      6.42921      2.13683      3.97282        -0.038309     -0.017384      0.020829
Li	     10.82694      6.21919      8.24254         0.047446     -0.057658     -0.071495
Li	      8.74836      4.30974      8.24021         0.074748     -0.070107     -0.112757
Li	      2.28870      2.03480      3.97295         0.042448     -0.061078      0.019515
Li	      4.55179      4.10644      3.98493         0.078565      0.013102      0.032772
Li	      8.78831      6.28296      6.24260         0.018594      0.028669     -0.124991
Li	      8.86279      8.25538      8.24218        -0.110664      0.114663     -0.102498
Li	      6.89756      6.24507      8.22530        -0.066376      0.134775     -0.052689
Sc	      6.55835      4.21996      6.05980        -0.250543      0.093883     -0.347728
Sc	      2.35029      4.09513      6.13291         0.160439      0.011684      0.351212
Ti	     10.84873      4.27585      6.12193        -0.015128      0.245377      0.232910
Mn	      2.20220      8.28264      6.14645         0.005995     -0.102973      0.289495
V	      6.64163      4.10019     10.10840         0.304198     -0.550632     -0.515948
Co	      6.59535      4.14697      2.04762         0.150762     -0.041735      0.103852
Co	      4.41345      2.03145      2.19430        -0.008113     -0.212095      0.094778
Cu	      8.81215      6.24130     10.10570         0.029615     -0.027556      0.093731
Cu	      4.49372      6.23159      6.16653         0.219114     -0.058213     -0.235250
O	      8.85107      6.27315      8.21541         0.065836     -0.024707     -0.154867
O	      2.30130      1.92546      1.92891        -0.147803      0.034066     -0.044932
O	      4.57374      4.10653      1.93105        -0.107543      0.227484     -0.139811
O	      4.38204      2.06436      3.95669        -0.018830      0.052297      0.123853
O	      6.63134      4.14572      4.02080        -0.012053     -0.003662     -0.001877
O	      6.55285      1.98306      6.07294         0.043789     -0.224368      0.052021
O	      8.90729      3.99885      6.18763         0.028596     -0.009973      0.012803
O	      2.03641      4.28645      4.07091        -0.754552     -0.139272      0.052662
O	      4.56763      6.46974      4.19907        -0.038816      0.366260     -0.418833
O	      4.43889      4.25115      6.05834        -0.060598     -0.582935      0.048909
O	      6.75574      6.23942      6.15133         0.271886      0.086184     -0.010173
O	      6.61220      4.17254      8.21916        -0.003943     -0.043474      0.790384
O	      1.94248      6.31013      6.15636        -0.277575     -0.035780     -0.034759
O	      4.48138      8.35045      6.15744         0.049316      0.813525     -0.460920
O	      4.08842      6.27915      8.05540        -0.260505     -0.123850      0.591651
O	      6.46396      8.42920      8.16570         0.182426      0.048202     -0.161515
O	      6.47097      6.05150     10.35185        -0.068507     -0.070602      0.160002
O	      9.01529      8.21342     10.31863         0.506124      0.135245     -0.021525
