# total energy = -229.13159069 eV
 
CRYSTAL
PRIMVEC
-0.026041 6.401481 6.251704 
6.436702 0.039110 6.188292 
4.334219 4.267196 -0.016584 
PRIMCOORD
36 1
Li	      4.27423      4.30878      0.17936         0.012510     -0.037380     -0.069554
Li	      6.21582      4.27330      2.09936        -0.034183     -0.033618      0.040368
Li	      4.27709      2.40251      2.12376         0.030105     -0.013738      0.000314
Li	      6.50352      2.18357      4.16144         0.023460     -0.055325     -0.068388
Li	      4.32047      6.21786      2.14951        -0.019020      0.078002      0.021902
Li	      2.43739      4.26753      2.07064        -0.007766     -0.006599      0.055248
Li	      4.32178      4.39726      3.95014        -0.042652      0.019249      0.002420
Li	      4.29278      8.39561      4.18788         0.028979      0.011062     -0.119144
Li	      2.41330      6.44938      4.07584         0.061527     -0.010751      0.009404
Sc	      4.37811      2.15946      6.19401         0.075733     -0.099932     -0.065772
Sc	      6.50145      6.39022      8.34906        -0.003277     -0.033900      0.100585
Ti	      4.30020      6.39060     10.29535         0.288250      0.173322      0.136526
Mn	      6.46799      4.27680      6.18644        -0.046519     -0.000730      0.296737
V	      1.98086      4.53650      6.16479        -0.052600      0.138121      0.154382
Co	      2.04829      2.12056      3.90386        -0.052122      0.057299     -0.172865
Co	      8.61430      8.50809      8.33416        -0.229842     -0.121522     -0.086377
Ni	      8.52380      2.20979      6.25005         0.015562     -0.115065      0.047103
Ni	      4.31369      6.37979      6.19831        -0.011280      0.048234      0.082703
O	      4.32516      4.29063      2.06630         0.008459     -0.021354     -0.005602
O	      2.16740      2.15534      2.09931         0.014042     -0.028578      0.303153
O	      4.17938      1.97624      4.15719        -0.019258     -0.129523      0.002024
O	      6.56040      4.32244      4.22676         0.049288     -0.019047     -0.109654
O	      6.43351      2.31865      6.17761        -0.114221      0.002337     -0.033901
O	      8.64654      4.29786      6.10372        -0.001996      0.082532     -0.074087
O	      2.12819      4.18211      4.40246        -0.014680     -0.026406      0.046506
O	      4.41690      6.41792      4.22196         0.127644     -0.006558     -0.160917
O	      4.07445      4.26492      6.22265         0.072092     -0.084831      0.186911
O	      6.45739      6.30274      6.18467         0.088828      0.014183     -0.076939
O	      6.34891      4.33500      8.12174         0.344395      0.041192     -0.139933
O	      8.54015      6.41742      8.27317         0.098362      0.244793     -0.001476
O	      2.13659      6.31522      6.17788         0.015712     -0.050143     -0.023552
O	      4.53476      8.48368      6.24414        -0.033417      0.095076      0.044926
O	      4.31061      6.38024      8.35031        -0.084146     -0.249486      0.272598
O	      6.51531      8.50462      8.03239        -0.250730     -0.010478     -0.208055
O	      6.21403      6.47518     10.34471        -0.331480      0.021239     -0.039621
O	      8.57887      8.68472     10.45220        -0.005759      0.128325     -0.347970
