# total energy = -232.44443051 eV
 
CRYSTAL
PRIMVEC
-0.052317 6.247815 6.133246 
6.453885 -0.054772 6.135235 
4.272998 4.136560 -0.006375 
PRIMCOORD
36 1
Li	     10.63410      4.05141      6.14709        -0.104530      0.010520     -0.027867
Li	      2.13464      8.32891      6.14999        -0.010026     -0.079814     -0.063986
Li	      2.21131      0.07486      2.02153         0.109825      0.004621      0.012096
Li	      4.11133      2.02551      2.04014        -0.020063     -0.113302     -0.003067
Li	      2.13163      2.08233      4.05278         0.034758     -0.051855      0.074199
Li	      8.47348      6.08041      6.15564         0.040090     -0.090580     -0.116651
Li	      6.52701      4.27460      6.07818         0.028958      0.088312     -0.056021
Li	      8.54395      6.18440     10.21627        -0.016004      0.018354      0.105817
Li	      6.43377      6.15748      8.16695        -0.173542      0.008041      0.032404
Sc	      6.48477      2.03985      8.06441        -0.000371     -0.146250     -0.158554
Sc	      4.28743      4.08822      4.05646         0.256330     -0.159029     -0.092281
Ti	      6.37742      8.29084      6.26776        -0.110409      0.076274      0.272816
Mn	      6.43708      4.14920     10.23354        -0.090639      0.087004      0.214969
V	      6.46116      1.98753      4.15988        -0.152695      0.075699     -0.183857
Co	      8.54224      4.10426      4.08940        -0.015233      0.252886     -0.531049
Co	      8.58090      4.12368      8.07684         0.081406     -0.102656     -0.165822
Co	      4.25467      6.22163      6.19287         0.097983      0.180218      0.034839
Ni	      8.52951      8.22553      8.18802        -0.007009      0.290625     -0.022113
O	      2.08078      2.15028      2.01278        -0.012961      0.486346     -0.006594
O	      4.29270      4.17564      2.03156        -0.131119      0.125605      0.017025
O	      4.43948      2.02846      4.06516         0.173534     -0.032282      0.141575
O	      6.41264      3.97630      4.08147        -0.060603     -0.168600      0.049525
O	      6.46797      2.00056      5.96697        -0.026415     -0.018293      0.153888
O	      8.53328      4.11374      5.95901        -0.012200     -0.056565      0.956181
O	      2.18310      4.14681      4.21031        -0.020926     -0.016760     -0.242322
O	      4.27210      6.28618      4.17181        -0.008981      0.049505     -0.164502
O	      4.15864      4.25128      6.16899        -0.042939     -0.033185     -0.070781
O	      6.23561      6.31593      6.15419         0.122555      0.126538     -0.015033
O	      6.37211      4.13192      8.32377         0.125282     -0.084374     -0.022301
O	      8.64005      6.16695      8.12259        -0.002862     -0.437184     -0.006378
O	      2.30125      6.08635      6.16945        -0.065711     -0.139454     -0.011870
O	      4.35170      8.21329      6.05923         0.092873      0.030874     -0.006044
O	      4.23039      6.16678      8.18718        -0.044757     -0.127493     -0.152105
O	      6.40798      8.23472      8.22335         0.048472     -0.039944     -0.183461
O	      6.33893      6.17966     10.24426         0.096164     -0.006820      0.080932
O	      8.41594      8.28045     10.20886        -0.178233     -0.006982      0.156394
