# total energy = -225.87457247 eV
 
CRYSTAL
PRIMVEC
0.032628 6.235182 6.394542 
6.270036 0.029552 6.397542 
4.200637 4.179322 -0.000853 
PRIMCOORD
36 1
Li	      2.13796      2.15332      0.04236        -0.019534      0.036952     -0.012166
Li	      4.13519      6.27410     10.53724        -0.033664      0.013724     -0.069777
Li	      6.34153      2.16600      8.48599         0.003585      0.023758     -0.018563
Li	      6.35792      6.13974      4.23068         0.032032     -0.014607      0.036949
Li	      4.22302      4.22477      4.17987         0.005116     -0.038715      0.008492
Li	      6.35091      4.16182      6.45308        -0.000578     -0.004448      0.034378
Li	      6.29592      4.22066     10.60227         0.008700      0.012763     -0.026295
Li	      4.36737      4.24572      8.52911         0.065341      0.026149      0.028790
Li	      6.26813      6.17665      8.57489        -0.030006      0.003986      0.012964
Sc	      6.26558      2.19186      4.20499        -0.025861     -0.011589      0.022770
Sc	      4.27193      6.30144      6.44537         0.062100     -0.027560     -0.038124
Ti	      4.16395      2.15997      6.34538         0.004711      0.048351     -0.242199
Mn	      2.05623      4.11258      2.16909        -0.096671      0.028174     -0.081933
V	      8.43641      6.29455     10.56943        -0.084110      0.202919      0.008254
Cu	      4.15187      2.10463      2.13393         0.040178     -0.074758      0.009904
Ni	      4.21322     10.36332      6.39685        -0.019933      0.059925     -0.068428
Ni	      6.24162      4.24151      2.19433        -0.038585      0.052519     -0.069081
Ni	      6.29265      8.32992      6.43553         0.017392     -0.043253     -0.048896
O	      2.14498      2.18562      2.15676        -0.103022      0.122369     -0.006025
O	      4.11323      4.10091      2.08771        -0.058513      0.134156      0.104197
O	      4.18572      2.04963      4.50793        -0.043282      0.006653      0.420838
O	      6.28621      4.18097      4.21602        -0.019907      0.001368      0.110131
O	      6.11804      2.07678      6.37062        -0.010836      0.112578      0.035439
O	      8.38765      4.29139      6.62515        -0.122485      0.036356      0.059325
O	      2.12729      4.29972      4.13127         0.025747     -0.071040     -0.006724
O	      3.98329      6.21289      4.32545         0.076369     -0.010817     -0.081837
O	      4.16115      4.08756      6.50772         0.125341     -0.113546      0.048453
O	      6.36857      6.28069      6.41934         0.048684     -0.108254      0.032805
O	      6.47332      4.16470      8.55044         0.068766     -0.041040      0.059857
O	      8.39731      6.16194      8.66448         0.028811     -0.079213     -0.059629
O	      2.11802      6.20330      6.23502         0.060369      0.116456     -0.041729
O	      4.26391      8.32358      6.22928        -0.137792     -0.108218     -0.030643
O	      4.14678      6.32466      8.50021         0.031406     -0.118205      0.023944
O	      6.18443      8.41690      8.50777         0.068784     -0.097334      0.039019
O	      6.50570      6.28986     10.69638         0.032697     -0.037055     -0.131622
O	      8.38945      8.15447     10.58614         0.038650     -0.039501     -0.062839
