# total energy = -224.39666474 eV
 
CRYSTAL
PRIMVEC
-0.002953 6.421556 6.223927 
6.144113 -0.043667 6.264279 
4.104231 4.316216 -0.037180 
PRIMCOORD
36 1
Li	      8.23710      8.68024     12.36619         0.007867      0.042807     -0.021445
Li	      4.09439      2.15952      2.13208        -0.001626      0.056226      0.031390
Li	      6.12480      2.14403      8.34284         0.006449      0.053777      0.029962
Li	      8.21096      4.30586      8.25717         0.013470     -0.005565      0.021706
Li	      4.06627      4.25753      4.07323        -0.007328      0.015215      0.021453
Li	      6.15965      4.25617     10.23935         0.048320     -0.093925     -0.018866
Li	      4.09616      6.45432      6.24391         0.052396     -0.038639     -0.037556
Li	      4.14623      4.26715      8.38911        -0.003705     -0.043597     -0.024717
Li	      6.10475      6.21553      8.44710        -0.004169     -0.065981     -0.037355
Sc	      6.10602      4.18300      6.33797        -0.119725      0.060693     -0.073261
Sc	      8.24757      6.42784     10.24682         0.220127     -0.223440     -0.085468
Ti	      2.03760      0.13689      2.11456        -0.111708      0.294436      0.250157
Mn	      2.01666      2.23654      4.14246        -0.024662     -0.039838      0.023052
V	      6.11677      8.55167      6.34711         0.319126     -0.152049     -0.097113
Cu	      4.14882      6.32041     10.37256        -0.066478     -0.048648     -0.097966
Cu	      6.08795      8.44636     10.37446        -0.130248      0.030719     -0.135639
Ni	      6.13170     -0.01408      6.26599         0.004038     -0.001232      0.047344
Ni	      8.19872      6.39110      6.28344        -0.078523      0.117328      0.056113
O	      2.07037      2.06286      2.19540         0.034097     -0.213597     -0.107042
O	      4.25487      4.28242      1.99151         0.205544      0.011576      0.096826
O	      4.03281      2.18627      4.21772         0.080662      0.029684     -0.113682
O	      6.10089      4.55262      4.07878         0.118169      0.111383     -0.138759
O	      6.12879      2.11921      6.17581         0.183136     -0.007666      0.058731
O	      8.19541      4.28507      6.11278        -0.034597     -0.080906      0.009577
O	      2.07938      4.17428      4.29202        -0.029817      0.241956      0.041054
O	      4.21548      6.49695      4.14068        -0.308659      0.029949     -0.003783
O	      3.94538      4.21801      6.26433        -0.111237      0.051512      0.029541
O	      6.12731      6.55140      6.09336        -0.103001      0.105491      0.050752
O	      6.15033      4.25657      8.23954         0.004434     -0.027077      0.004841
O	      8.19479      6.34349      8.29894        -0.023333     -0.023575      0.180591
O	      2.09798      6.22290      6.29072         0.069201      0.010173      0.090396
O	      4.33168      8.60768      6.22775        -0.181643     -0.063790      0.022996
O	      3.96989      6.39599      8.39929        -0.047782     -0.003917     -0.067012
O	      6.14720      8.64801      8.16435        -0.012676      0.019792      0.036772
O	      6.17515      6.29426     10.45138        -0.029596     -0.123532     -0.068302
O	      8.03896      8.45430     10.39356         0.063475     -0.025742      0.024710
