# total energy = -224.98411424 eV
 
CRYSTAL
PRIMVEC
-0.002635 6.374370 6.427386 
6.116988 0.016611 6.407687 
4.074384 4.233142 0.014963 
PRIMCOORD
36 1
Li	      4.09907      8.49975      8.50749         0.013740      0.029936      0.045187
Li	      4.14310      6.32631     10.62062        -0.070357     -0.033914     -0.020197
Li	     10.04865      6.30691      8.59840        -0.055831      0.016142      0.013029
Li	      8.20580      4.35617      8.54853        -0.026760      0.001654      0.019435
Li	      8.13529      6.38855      6.51984         0.016921      0.005730     -0.053758
Li	      2.08184      6.31120      4.24225        -0.048199     -0.006157     -0.019890
Li	      2.04224      4.31223      6.42993        -0.035296      0.055736     -0.025794
Li	      4.04358      6.36416      6.46343         0.012681     -0.013028     -0.003134
Li	      4.09374      4.23450      8.49268         0.019127     -0.032608     -0.058694
Sc	      6.11591      8.48212     10.66276        -0.038220      0.166594      0.080405
Sc	      2.03279      2.16820      4.15297         0.226245     -0.091683     -0.001019
Ti	      6.13160      6.40592      8.54721         0.098122     -0.038183      0.049593
Mn	      2.06849      2.11229      0.08884        -0.094400     -0.091883     -0.025637
V	      6.03632      4.28735      6.50870         0.319158     -0.111136     -0.000914
Cu	      4.03042      4.24080      0.12306        -0.008191      0.009417      0.249279
Cu	      4.00190      4.29718      4.21646         0.104512     -0.107381      0.081226
Cu	      4.05937      8.45987      4.33315         0.203185     -0.213808      0.001695
Ni	      2.10127      6.35710      8.51715         0.070306     -0.079751      0.286935
O	      3.96318      8.61356      6.46824         0.014069     -0.073974     -0.048979
O	      2.05407      2.07718      2.05225         0.010382      0.114103     -0.126942
O	      4.13352      4.24347      2.25832        -0.233512      0.068725     -0.023489
O	      4.09084      2.24210      4.32330        -0.082267     -0.159147     -0.004413
O	      6.11772      4.24911      4.34495         0.414684      0.037594      0.107057
O	      6.21340      2.15556      6.41027         0.057458      0.163807     -0.063026
O	      8.08976      4.08418      6.43665        -0.028126     -0.012495      0.024917
O	      1.96495      4.21298      4.33423        -0.290431      0.111155     -0.004544
O	      4.06108      6.30936      4.28837        -0.183378      0.207032      0.030177
O	      4.26421      4.20927      6.36600        -0.409879      0.035368     -0.183973
O	      6.13507      6.21966      6.44157        -0.015394      0.143071     -0.006304
O	      6.10662      4.35417      8.41180         0.019481      0.038912     -0.070130
O	      8.01044      6.37779      8.51353        -0.132961      0.014936     -0.019197
O	      1.93515      6.53613      6.50351         0.108416      0.065144     -0.159544
O	      4.15553      6.34956      8.53543         0.168619      0.002530     -0.070662
O	      6.15346      8.41493      8.58285        -0.006671     -0.103317     -0.080994
O	      6.10049      6.42285     10.51856         0.037707     -0.105139     -0.074282
O	      8.21956      8.49291     10.94956        -0.154941     -0.013981      0.156580
