# total energy = -88.92390549 eV
 
CRYSTAL
PRIMVEC
2.022113 3.889740 1.952298 
3.951916 -1.902418 -1.945446 
0.025309 3.885263 -3.920945 
PRIMCOORD
16 1
Li	      1.87658      1.86872     -0.00156        -0.159649     -0.521193      0.875277
Li	      3.74949      1.87316     -1.86627         1.072694     -0.253240     -0.042481
Li	      0.02239      1.86723     -1.87725        -0.833479     -0.575519      0.568333
Li	      3.86418      3.70940     -3.72807        -0.024904      0.500007     -0.197433
Mn	      5.68695      5.56430     -3.71817         3.475033      2.306747     -2.615578
Mn	      1.89278      0.04939     -1.86476        -2.016275     -4.642442      0.874363
Ni	      1.88728      3.71136     -1.82407        -2.078047      0.873303     -0.170003
Ni	      1.90324      1.84321     -3.69473        -0.760499     -1.450912     -3.055583
O	      3.70706      3.71458     -1.73025         2.866087      1.000834     -1.019323
O	      3.82044      1.89241     -3.84404         0.711254     -0.978400     -0.093059
O	      3.93062      1.95220      0.01700        -1.123388     -0.918655      1.079357
O	      3.61765     -0.05586     -1.85624         3.088929     -1.438339      0.103231
O	      2.04126      3.68695      0.06064        -1.246277      0.818072      2.750860
O	      1.92871      1.77597     -1.85521        -0.961766      1.740756      2.005680
O	      1.94483      5.62668     -1.88948        -1.179491      1.600399      0.362624
O	      1.78759      3.71460     -3.77359        -0.830221      1.938583     -1.426263
