# total energy = -231.04570297 eV
 
CRYSTAL
PRIMVEC
0.003955 6.310361 6.228629 
6.277386 0.007999 6.223522 
4.199425 4.217632 -0.008623 
PRIMCOORD
36 1
Li	      4.12823      4.25889      0.18301        -0.037282     -0.019216     -0.115318
Li	      2.10393      0.03451      2.10288         0.028447      0.018363      0.022627
Li	      4.12154      6.29313     10.21621         0.011671      0.025344      0.074010
Li	     10.22857      6.19504      8.27227         0.032520      0.067736     -0.021606
Li	      8.49473      4.39966      8.26848        -0.106988     -0.021041     -0.002995
Li	      8.37649      6.31378      6.43606         0.004867     -0.015899     -0.157379
Li	      8.39832      6.31053     10.13660         0.004088     -0.023474      0.059436
Li	      8.40142      8.21029      8.24531        -0.020226     -0.097804      0.003886
Li	      6.42542      6.31131      8.23497         0.013948      0.002464     -0.005664
Sc	      6.22786      4.24610     10.16509        -0.021270      0.025229      0.279378
Sc	      2.15594      4.29775      6.30149        -0.099827      0.035944      0.035167
Ti	      6.27006      8.21923     10.36025        -0.356376     -0.319183     -0.065189
Mn	      6.26040      4.23951      6.30365         0.016453     -0.043342      0.018843
V	      2.08021      2.08785      0.07387         0.275606     -0.100859      0.074808
Fe	      2.11084      2.08681      4.08909         0.263994      0.006136      0.033431
Co	      4.21990      2.13459      2.09842         0.089470     -0.122749     -0.336849
Ni	      4.18790      4.25816      4.08618        -0.011335     -0.010963      0.247205
Ni	      4.23083      6.35475      6.29899        -0.069068      0.106127     -0.295698
O	      8.35973      6.31567      8.27703         0.073165     -0.125928      0.002889
O	      2.27314      2.06776      2.07540        -0.837421     -0.069809     -0.184913
O	      4.22226      4.07786      2.12995         0.000221     -0.403265     -0.304487
O	      4.25039      2.12869      4.07596         0.215375     -0.044414      1.372036
O	      6.27238      4.23422      4.33022         0.105761     -0.010013     -0.063214
O	      6.35041      2.05333      6.10975        -0.030289     -0.081501      0.041555
O	      8.27256      3.93883      6.25889        -0.052751      0.078354      0.019115
O	      2.04824      4.14869      4.20203        -0.008426      0.110189     -0.059798
O	      4.31301      6.36181      4.13850        -0.136336      0.038121     -0.054039
O	      4.21169      4.29333      6.20078         0.113504      0.007285      0.089142
O	      6.31968      6.40585      6.10772         0.059374      0.005075      0.133448
O	      6.23045      4.22562      8.20303        -0.065442      0.040291     -0.082796
O	      2.13517      6.45842      6.23380        -0.066428      0.002415      0.079116
O	      4.14867      8.46460      6.25335        -0.145987      0.130975     -0.983152
O	      4.22994      6.52867      8.26128         0.067432      0.484996      0.263411
O	      6.23355      8.48201      8.40171         0.759492      0.075450      0.065037
O	      6.24614      6.39057     10.38592        -0.033366      0.212536     -0.059371
O	      8.28750      8.40886     10.46455        -0.036573      0.036425     -0.122070
