# total energy = -233.76140044 eV
 
CRYSTAL
PRIMVEC
0.031948 6.211231 6.562487 
6.245121 0.056724 6.536862 
4.175825 4.136627 0.025712 
PRIMCOORD
36 1
Li	      2.04985      0.12248      2.22702         0.054065     -0.056405      0.001088
Li	      4.08273      2.13593      2.33992         0.014001     -0.004808      0.039362
Li	      4.17682      6.27091     10.86555         0.001142     -0.046590     -0.011271
Li	      4.23281      6.14795      2.32099        -0.055192      0.073457      0.022086
Li	      2.13116      2.03505      4.21496        -0.008257     -0.003494     -0.001318
Li	      6.15640      4.25279      6.38177        -0.050394     -0.001442     -0.083865
Li	      2.13437      6.13401      4.42222         0.022530      0.079457      0.052028
Li	      2.12251      4.23946      6.51637         0.040752     -0.001675      0.035252
Li	      4.21492      6.10733      6.55930        -0.025644     -0.050450      0.044016
Sc	      2.11092      2.08195      0.14273        -0.019522      0.035651     -0.254495
Sc	      6.30933      8.37322     10.84593         0.210813      0.016124      0.101032
Ti	      6.15299      6.24327      8.64967        -0.208891     -0.038676     -0.225109
Mn	      4.21970      4.12812      0.08499        -0.032904      0.022410     -0.101997
V	      4.30367      8.15099      4.39936        -0.066345     -0.086920      0.158167
Fe	      8.27257      6.26984      6.54630         0.115397      0.071337     -0.134691
Co	      4.13988      4.17397      4.39618         0.027206      0.120529      0.119376
Co	      4.21699      4.15353      8.68839        -0.024687     -0.083340      0.121491
Cu	      2.15520      4.13413      2.28182         0.202271     -0.062738     -0.053069
O	      2.11083      2.15880      2.12373         0.008450     -0.089129      0.164864
O	      4.11441      4.17382      2.44179        -0.044701      0.009355      0.027178
O	      4.16594      2.24102      4.46249         0.015799     -0.094738     -0.084831
O	      6.09826      4.16446      4.36771        -0.019012      0.010079     -0.080554
O	      6.24415      2.01929      6.45832         0.044095     -0.029336      0.013603
O	      8.49719      4.25330      6.40450         0.011826     -0.009924     -0.091743
O	      2.08492      4.15212      4.50155        -0.075044     -0.016284      0.115269
O	      4.18339      6.32749      4.43981         0.050321      0.030031     -0.024698
O	      4.18538      4.09595      6.46036        -0.044533      0.043203     -0.266714
O	      6.30943      6.16291      6.75688        -0.107248     -0.030936      0.296760
O	      6.35022      4.21941      8.91364        -0.443577      0.061036     -0.099017
O	      8.30338      6.23370      8.59898        -0.017390      0.563504      0.052641
O	      1.97170      6.25769      6.64953         0.004660     -0.022377      0.060200
O	      4.20975      8.40320      6.41325        -0.010120     -0.039747      0.060577
O	      4.28012      6.19446      8.70890         0.142385     -0.379692      0.032684
O	      6.27324      8.16089      8.80842         0.227781     -0.066650     -0.155424
O	      6.29836      6.13888     10.75595         0.015686      0.048618     -0.084356
O	      8.43339      8.32045     10.91591         0.044280      0.030558      0.235477
