# total energy = -232.95419304 eV
 
CRYSTAL
PRIMVEC
-0.003247 6.303141 6.236519 
6.563833 0.044091 6.190087 
4.401117 4.195873 0.003886 
PRIMCOORD
36 1
Li	      4.38874      8.39825      8.29562         0.030442      0.048502     -0.003467
Li	      4.33720      6.31125      2.19538        -0.075729      0.031654      0.009975
Li	      8.64184      4.36070      8.47652        -0.060793      0.000278     -0.072446
Li	      2.12026      2.29494      4.12958        -0.083325     -0.013047      0.027380
Li	      4.10183      4.25757      4.14795        -0.070718      0.009958      0.052664
Li	      8.66033      6.32070      6.29235        -0.024029      0.030709      0.009257
Li	      0.23220      4.13735      4.10020         0.054448     -0.040756      0.011586
Li	      2.31624      6.05848      4.02423         0.031951     -0.011203     -0.020143
Li	      6.73140      6.22676      8.27420         0.121291      0.026277      0.050289
Sc	      0.01719      6.29708      6.23844        -0.085690     -0.028785      0.019172
Sc	      8.82805      8.29833      8.30415        -0.203881     -0.108658     -0.346848
Ti	      6.49286      4.29036      2.20872        -0.196289     -0.227500      0.012900
Mn	      6.56228      4.28116      6.21635        -0.035843     -0.321834     -0.039204
V	      4.46750      0.17176      4.08067        -0.103526     -0.192918     -0.228809
Fe	      2.27227      8.38926      6.23714        -0.153071      0.157621     -0.060076
Co	      6.54265      8.42311     10.32046         0.157060     -0.138943      0.002824
Co	      4.41176      6.32085      6.10472         0.219546     -0.085959     -1.073963
Ni	      2.21315      4.11070      6.13661         0.120124      0.053843      0.276641
O	      2.22918      1.97993      1.98290        -0.040114     -0.166878      0.187833
O	      4.61027      4.18259      2.07550         0.349756      0.092903      0.178579
O	      4.42791      1.95219      4.16115         0.468509      0.321111     -0.049049
O	      6.75408      4.27253      4.16190        -0.006768     -0.116664     -0.042581
O	      6.72285      2.18689      6.12462         0.059982      0.137164      0.212313
O	      8.88021      4.17541      6.11190         0.094084      0.000895      0.035070
O	      2.16519      4.18222      4.20232        -0.035168     -0.016536     -0.296729
O	      4.32381      6.31541      4.30496         0.028640      0.184140      0.001873
O	      4.32782      4.35589      6.17037         0.013540     -0.811139      0.743198
O	      6.49051      6.23131      6.24040        -0.177424      0.090849     -0.014409
O	      6.51539      4.21911      8.11206        -0.006311     -0.049483      0.119937
O	      8.76260      6.36394      8.25727         0.051464     -0.159324      0.115970
O	      2.15067      6.35636      6.35440         0.033908     -0.020060     -0.117276
O	      4.32365      8.34011      6.20774        -0.057521      0.762314      0.418326
O	      4.22359      6.31544      8.33139        -0.009244      0.125468      0.243299
O	      6.63201      8.56016      8.28238         0.031291      0.204150     -0.228717
O	      6.40839      6.31181     10.34194        -0.063322      0.409098     -0.124768
O	      8.69330      8.64300     10.39678        -0.377270     -0.177248     -0.010601
