# total energy = -237.61535211 eV
 
CRYSTAL
PRIMVEC
0.025352 6.265917 6.259341 
6.426884 0.036894 6.247645 
4.317642 4.202591 -0.008461 
PRIMCOORD
36 1
Li	     10.71060      4.24273      6.26362        -0.010383      0.012083     -0.067548
Li	      2.17094      2.13018      0.03011         0.009446     -0.000538      0.006479
Li	      6.41411      4.20714      2.12153        -0.032456      0.003568      0.006686
Li	      4.32845      6.22991     10.31535        -0.028692      0.030291     -0.005932
Li	      4.40178      6.23223      2.13347         0.004869     -0.033392      0.001056
Li	      4.29483      4.22812      4.05265        -0.026497     -0.001775      0.023051
Li	      6.43793      4.23938     10.30625         0.086831      0.038451      0.018236
Li	      4.33211      4.31001      8.39565         0.022612     -0.008865     -0.049360
Li	      6.41910      6.26705      8.46397         0.037118      0.002382     -0.020063
Sc	      8.61662      6.30553      6.26002         0.025372     -0.069818      0.032299
Sc	      6.48589      4.16197      6.34089         0.100804      0.022277     -0.066196
Ti	      4.23937      6.36511      6.31716        -0.247463      0.047451     -0.088903
Mn	      6.50992      8.40628     10.35745        -0.061490     -0.000451     -0.007911
V	      8.64386      6.37563     10.34205        -0.029839     -0.211391      0.165527
Fe	      4.25285      2.19844      2.12909        -0.044827     -0.068934      0.034928
Co	      6.39218      6.24047      4.08100        -0.052192     -0.001639     -0.103347
Co	      2.17369      4.18861      2.10109        -0.003994     -0.039757      0.048624
Co	      6.47013      8.40164      6.29812        -0.042556      0.104994     -0.003306
O	      2.20315      2.23036      2.09827         0.003853      0.023685      0.100123
O	      4.15035      4.13606      2.06613        -0.087234      0.125320     -0.029007
O	      4.22495      2.05321      4.16379        -0.077265      0.017822      0.047271
O	      6.48810      4.09706      4.17448         0.001338     -0.026943     -0.042418
O	      6.37019      2.13097      6.13441        -0.048799     -0.017016     -0.002507
O	      8.57000      4.24248      6.37631        -0.036222     -0.006977     -0.011978
O	      2.15360      4.34166      4.11561         0.012898      0.038515     -0.045586
O	      4.25437      6.23898      4.28282         0.084598      0.070591      0.045000
O	      4.33962      4.23738      6.34441        -0.050952      0.074617      0.017673
O	      6.39549      6.30019      6.17542         0.020535     -0.002403      0.061814
O	      6.62267      4.21910      8.34125         0.049426     -0.021107      0.035538
O	      8.65165      6.19901      8.36995         0.031155      0.049069     -0.104102
O	      2.30726      6.26262      6.14293         0.280116     -0.029806      0.059250
O	      4.34379      8.26316      6.28997         0.060466     -0.093193     -0.015770
O	      4.29490      6.33894      8.20475        -0.003682     -0.032258     -0.064496
O	      6.32490      8.42587      8.35351         0.042851     -0.009885      0.074358
O	      6.65107      6.46910     10.40723        -0.060619     -0.108111      0.008107
O	      8.66849      8.21864     10.35075         0.070874      0.123142     -0.057589
