# total energy = -230.05636641 eV
 
CRYSTAL
PRIMVEC
-0.012539 6.227508 6.244238 
6.425113 -0.029361 6.261986 
4.284984 4.164959 -0.021049 
PRIMCOORD
36 1
Li	      2.15542      6.19371      8.28557         0.039902     -0.022465      0.002165
Li	      8.51600      4.11120      4.16626         0.077968     -0.073718     -0.050842
Li	      6.34975      2.12378      8.25877        -0.079051      0.057471     -0.009583
Li	      2.15497      4.13976      2.08069        -0.016098      0.011503      0.043865
Li	      6.50117      6.20332      4.23899         0.031123      0.052295     -0.000486
Li	      6.42504      4.11390      6.27930        -0.035333     -0.014463      0.044945
Li	      2.20163      4.17350      6.23928         0.019078     -0.020267     -0.001956
Li	      4.19582      6.15650      6.29402        -0.015099     -0.061680      0.021019
Li	      4.30068      4.13749      8.32669         0.023986      0.029600      0.070308
Sc	      0.10407      4.13593      4.16798         0.018331     -0.010782     -0.044819
Sc	      6.43589      6.19524      8.25831        -0.100665     -0.009224      0.001366
Ti	      4.22891      8.24661      8.29896         0.028261     -0.369718      0.024110
Mn	      8.50097      2.07339      6.28297        -0.023696      0.117135     -0.033451
V	      4.42029      4.28760      4.15379         0.152260      0.084299      0.264540
Fe	      8.54313      6.12553      6.26303         0.018383      0.126262     -0.145085
Cu	      2.14643      6.24499      4.15846         0.089463      0.036275     -0.127252
Ni	     10.70745      4.16196      6.26817        -0.032815     -0.012050      0.053487
Ni	      6.39677      8.26187     10.40635         0.003093      0.059824     -0.016989
O	      2.29742      2.09511      1.96690         0.129819     -0.030558     -0.029098
O	      4.26085      4.08989      2.25193         0.005151     -0.015609     -0.093382
O	      4.25684      2.18408      4.09868        -0.070881     -0.026006     -0.105664
O	      6.20915      4.10943      4.13388        -0.033998      0.067376     -0.023598
O	      6.28003      2.02712      6.19920         0.041524      0.051928      0.185772
O	      8.60477      4.08865      6.21165        -0.068772     -0.110435      0.069516
O	      2.21139      4.26012      4.16598        -0.020219     -0.095411     -0.049424
O	      4.40296      6.10074      4.16243         0.098327      0.003507     -0.019655
O	      4.25886      4.08009      5.99044        -0.001934      0.045801     -0.077376
O	      6.58772      6.17108      6.23547        -0.058760      0.016039      0.009246
O	      6.37498      4.14563      8.43552         0.025058     -0.047299      0.029666
O	      8.53381      6.26835      8.23898         0.010623     -0.007638      0.190619
O	      2.05959      6.37881      6.23841         0.044446      0.005699     -0.065462
O	      4.34840      8.34787      6.32919        -0.031169     -0.073043      0.066638
O	      4.28563      6.33766      8.32862         0.003650      0.294104     -0.022385
O	      6.26227      8.29795      8.36895        -0.108369      0.016205     -0.154047
O	      6.33432      6.17494     10.42702        -0.202179     -0.122441     -0.018898
O	      8.56015      8.20962     10.53283         0.038595      0.047484      0.012191
