# total energy = -228.72407607 eV
 
CRYSTAL
PRIMVEC
0.019342 6.263435 6.334824 
6.344937 0.014464 6.339991 
4.242005 4.190789 -0.001844 
PRIMCOORD
36 1
Li	      2.14365      8.34097      6.32080         0.036915     -0.044998      0.046704
Li	      2.19531      6.27490      8.35603        -0.004969      0.062281      0.029095
Li	      8.42212      4.26044      4.24083        -0.018367      0.048043     -0.018211
Li	      8.44504      4.20595      8.43904        -0.002451     -0.087957     -0.007520
Li	      6.33530      6.31329      4.34085        -0.036516     -0.060381     -0.033797
Li	      4.25388      4.12046      4.29505         0.019597      0.052049     -0.016955
Li	      6.38395      4.26119      6.29343        -0.023376     -0.007844     -0.029102
Li	      4.21433      6.24055      6.42198        -0.087087     -0.008531     -0.008977
Li	      4.24906      4.18848      8.30825         0.030130     -0.004944     -0.005027
Sc	     10.50788      4.19104      6.35787        -0.076655     -0.063146      0.071470
Sc	      2.19709      6.16461      4.26326         0.086836     -0.064492      0.053285
Ti	      6.44106      2.33744      4.16279         0.101614      0.761714     -0.120010
Mn	      4.19307      2.11531      2.15273        -0.092839     -0.024839     -0.040935
V	      0.08208      2.15259      2.15122         0.200900     -0.047434     -0.021326
Fe	      6.27738      6.19409      8.42491         0.070201     -0.000667      0.015058
Ni	      4.21942      2.11967      6.32904         0.020336      0.004945     -0.087431
Ni	      4.23324      8.33839      4.25218        -0.087049      0.010871      0.107624
Ni	      2.17621      4.14869      6.34777        -0.045186      0.074597      0.039191
O	      1.86754      2.09178      2.00420        -0.059234      0.026667      0.008658
O	      4.21800      4.17066      2.07407        -0.015520     -0.024750     -0.023975
O	      4.38973      2.11483      4.09206         0.043442     -0.005416     -0.058693
O	      6.39255      4.13126      4.17193         0.037579     -0.701736     -0.015128
O	      6.21163      2.13324      6.27984         0.121817     -0.019503     -0.020198
O	      8.48607      4.38714      6.29388         0.015196     -0.115014      0.030461
O	      2.02732      4.14201      4.28867         0.093998      0.072022     -0.076022
O	      4.25314      6.30041      4.08738        -0.074927     -0.133001      0.025067
O	      4.18284      4.01267      6.31995         0.179992      0.160091      0.016263
O	      6.52588      6.27776      6.47414        -0.081043     -0.065849     -0.041188
O	      6.32522      4.17240      8.51769         0.004980     -0.045684     -0.013427
O	      8.67130      6.26858      8.45784        -0.077130      0.004733      0.085122
O	      2.09479      6.22684      6.30328        -0.002728      0.057278      0.003464
O	      4.23320      8.36348      6.47316        -0.019093      0.029691     -0.000860
O	      4.35081      6.40345      8.42281        -0.106904      0.052057      0.009129
O	      6.44563      8.27551      8.56384        -0.006739      0.012426      0.134963
O	      6.41087      6.26526     10.50799         0.009258      0.131435      0.005459
O	      8.37120      8.35772     10.64882        -0.154978     -0.034715     -0.042228
