# total energy = -235.07516464 eV
 
CRYSTAL
PRIMVEC
0.011186 6.430164 6.179640 
6.400600 0.012547 6.178338 
4.284309 4.302565 -0.008250 
PRIMCOORD
36 1
Li	      0.21781      6.49955      6.18838         0.111524      0.025274     -0.002172
Li	      8.40460      2.15178      6.24832         0.013955      0.015817     -0.029575
Li	      6.29321      4.28698      1.99367         0.038570     -0.065997      0.021207
Li	      4.32391      2.21773      2.06541         0.078323     -0.048245     -0.082362
Li	      6.32995      2.22687      4.16019        -0.016244     -0.041003     -0.092576
Li	      4.39497      4.14196      4.07701         0.025668     -0.082812     -0.015307
Li	      4.43943      2.22037      6.14671        -0.081268      0.007677      0.054846
Li	      8.54853      6.50711     10.27666         0.009786      0.075941     -0.009968
Li	      8.51093      8.47928      8.23250        -0.135204     -0.048480      0.000409
Sc	      8.67429      4.35239      8.14069         0.041971      0.198856     -0.009151
Sc	      2.20002      2.07517      4.03355        -0.046898      0.010314      0.078311
Ti	     10.57529      8.64495     10.36259        -0.248639      0.032009      0.323463
Mn	      4.24185      6.41516      6.24279        -0.152320      0.060436     -0.066003
V	      6.37957      6.49209      8.27126         0.328643      0.055538     -0.178523
Fe	      8.53701      4.33282      4.12935        -0.231311     -0.071728      0.170308
Fe	      2.27066      4.38841      6.19330        -0.162603     -0.164315      0.151114
Co	      6.34788      4.23675      6.18087        -0.066319      0.038829     -0.127377
Cu	      6.39334      2.15171      8.18856        -0.039799     -0.104939      0.036605
O	      2.24529      2.24033      2.05794         0.080304      0.049801     -0.028814
O	      4.28052      4.42890      2.00358         0.001905     -0.027433      0.011267
O	      4.24064      2.00467      4.13132        -0.013820      0.052443     -0.002220
O	      6.44701      4.26773      4.23206         0.038546      0.057500     -0.047935
O	      6.39206      2.33591      6.25637        -0.001766      0.060962      0.033465
O	      8.28947      4.30028      6.11797         0.009612     -0.018427      0.039321
O	      2.06303      4.21365      4.14745        -0.026316     -0.024046     -0.067699
O	      4.29554      6.61578      4.11082         0.009279      0.060937     -0.004607
O	      4.27745      4.26976      6.12716         0.203224     -0.045056     -0.042946
O	      6.21035      6.32126      6.18996        -0.012380      0.054502     -0.104418
O	      6.40155      4.36104      8.23612         0.037533     -0.087409      0.127520
O	      8.32819      6.40542      8.25996         0.221342     -0.131774      0.015258
O	      2.32635      6.34476      6.18755        -0.071127      0.132298     -0.032508
O	      4.45521      8.61365      6.06699        -0.066689      0.020827     -0.410088
O	      4.35562      6.40854      8.25374        -0.057427     -0.030537      0.056840
O	      6.40825      8.46377      8.12691         0.020471      0.078198     -0.064730
O	      6.35308      6.34069     10.33725        -0.155484     -0.111410      0.256931
O	      8.71350      8.67126     10.32168         0.314959      0.015453      0.042112
