# total energy = -45.43991272 eV
 
CRYSTAL
PRIMVEC
-0.000003 2.061356 2.061331 
3.956557 -0.000018 0.000014 
-0.000120 4.220397 -4.220347 
PRIMCOORD
8 1
Li	      1.98022      2.11050     -0.05094        -0.000130      0.019977     -0.018629
Li	      1.98006      4.17286     -2.11325        -0.000133     -0.020515      0.019869
Mn	      0.00188      2.06213      2.05894         0.000716      0.001807     -0.001248
Ni	      0.00195      4.17229     -0.05147        -0.001045      0.000302      0.000219
O	      1.98012      4.17228     -0.05136         0.000311      0.000727     -0.000478
O	      0.00175      4.29149     -2.23176         0.001209      0.122181     -0.122640
O	      1.98018      2.06218      2.05890        -0.001209      0.000203     -0.000506
O	      0.00188      1.99191      0.06776         0.000281     -0.124682      0.123414
