# total energy = -90.37148327 eV
 
CRYSTAL
PRIMVEC
0.020298 2.041934 2.239296 
2.021493 -2.021204 0.000103 
10.431676 12.457081 0.030032 
PRIMCOORD
16 1
Li	      2.10007      2.09972     -0.06288         0.011261      0.011230     -0.017936
Li	      4.26228      6.28735     -2.55659        -0.000088     -0.001015     -0.035516
Li	      6.27177      6.27505     -4.47596        -0.017308     -0.018256      0.029460
Li	      8.34119     10.36634     -6.67950        -0.004847     -0.005623      0.021143
Mn	     10.42740     12.45226    -11.29152         0.028148      0.028476     -0.018544
Mn	      4.11145      2.08887     -2.27832         0.005255      0.008000      0.014851
Ni	      8.31769      6.30005     -6.81492        -0.007287     -0.007103     -0.004177
Ni	     10.28106     10.28421     -8.85784         0.066090      0.064844     -0.030624
O	     10.49322     12.51842     -8.96911         0.046785      0.045199     -0.017291
O	      8.21328      8.21680     -6.77926         0.135433      0.138370     -0.044757
O	     10.37307      8.35456     -9.12681        -0.118868     -0.114360      0.050919
O	      6.43202      8.45754     -4.67220        -0.126075     -0.133303      0.035464
O	      4.02074      4.01920     -2.19183        -0.005595     -0.001697      0.005826
O	      6.24009      4.22166     -4.57985        -0.007526     -0.006781     -0.006290
O	      1.93964     -0.08228      0.00798        -0.004431      0.001325      0.007491
O	      2.15630      4.17717      0.03496        -0.000947     -0.009308      0.009979
