# total energy = -89.76772028 eV
 
CRYSTAL
PRIMVEC
2.032755 3.910213 1.962573 
3.972716 -1.912430 -1.955685 
0.025442 3.905711 -3.941581 
PRIMCOORD
16 1
Li	      1.89638      1.88845     -0.00158        -0.136050     -0.449008      0.742968
Li	      3.78907      1.89293     -1.88596         0.921464     -0.217607     -0.031530
Li	      0.02262      1.88693     -1.89706        -0.725926     -0.516582      0.500711
Li	      3.90496      3.74854     -3.76742        -0.029106      0.426523     -0.164191
Mn	      5.74697      5.62303     -3.75740         3.120683      2.156878     -2.377707
Mn	      1.91276      0.04992     -1.88444        -1.698967     -4.007243      0.761275
Ni	      1.90720      3.75053     -1.84333        -1.766169      0.745000     -0.145569
Ni	      1.92332      1.86266     -3.73373        -0.603449     -1.223797     -2.633516
O	      3.74619      3.75378     -1.74851         2.488778      0.862397     -0.907082
O	      3.86076      1.91238     -3.88461         0.536051     -0.873275     -0.097111
O	      3.97210      1.97281      0.01718        -0.966578     -0.841814      0.956554
O	      3.65583     -0.05645     -1.87583         2.624645     -1.314852      0.098701
O	      2.06280      3.72586      0.06128        -1.096725      0.708122      2.436397
O	      1.94907      1.79471     -1.87479        -0.847557      1.450265      1.735031
O	      1.96536      5.68607     -1.90942        -1.073304      1.436873      0.346008
O	      1.80646      3.75381     -3.81342        -0.747790      1.658120     -1.220937
