# total energy = -238.61476974 eV
 
CRYSTAL
PRIMVEC
0.024693 6.353825 6.296224 
6.352073 0.026488 6.294212 
4.228941 4.228791 0.023759 
PRIMCOORD
36 1
Li	      8.54731     10.56862     10.58222         0.075594     -0.034568     -0.058687
Li	      6.35075      2.09614      4.27007         0.010103     -0.021697     -0.065319
Li	      6.36494      2.16875      8.41155        -0.007746     -0.006761     -0.003218
Li	      8.40086      4.30875      8.37848         0.030812     -0.032604      0.025580
Li	      6.29069      6.35058      4.33529         0.014375      0.011344      0.066535
Li	      6.37555      4.27768      6.27893        -0.001633      0.012016     -0.059643
Li	      2.12541      6.33044      4.26156        -0.019550     -0.014137      0.029062
Li	      2.12008      4.21374      6.25007        -0.007017      0.020367      0.009340
Li	      4.32010      6.35864      6.21924         0.062375     -0.035476      0.093572
Sc	      4.22201      2.14021      2.14512        -0.019065      0.066405      0.020013
Sc	      8.54108      8.44126      8.45251         0.044442     -0.008963      0.084495
Ti	      6.30147      4.30042      2.17413        -0.079381      0.066761      0.207398
Mn	      6.44976      6.29814      8.41545        -0.029736      0.067413     -0.008866
V	      4.11359      4.35902      4.30031         0.024238      0.008039      0.045714
Fe	      8.40522      8.51758     12.47581         0.044978      0.063697      0.036945
Fe	      8.49075      6.27851      6.26709         0.052462      0.144634     -0.078373
Co	      4.31080      8.38457      4.23930         0.036955     -0.100623      0.033976
Co	      6.35460      6.40710     12.51143         0.030139     -0.076832      0.052747
O	      2.14738      2.00862      2.03247         0.005317     -0.037575     -0.031653
O	      4.31956      4.22984      2.23883         0.058408      0.002825     -0.035384
O	      4.21576      2.23682      4.24221         0.047354     -0.051394     -0.114078
O	      6.16876      4.27037      4.08053         0.061786     -0.024277     -0.118592
O	      6.36058      2.04520      6.26207        -0.098321     -0.112923      0.024954
O	      8.55359      4.23893      6.27113         0.140079     -0.084585      0.018435
O	      2.31782      4.23803      4.20861         0.023471      0.022261      0.010126
O	      4.26737      6.27438      4.28054        -0.060769      0.251555     -0.060324
O	      4.28266      4.19624      6.24686         0.013376     -0.001872      0.048761
O	      6.47375      6.34522      6.45864        -0.042078      0.005217      0.042576
O	      6.35382      4.27234      8.41661         0.053311      0.002533      0.096216
O	      8.50231      6.40977      8.30074        -0.001431     -0.045011      0.069984
O	      2.00592      6.45253      6.42466        -0.170796     -0.050060     -0.064257
O	      4.16909      8.57417      6.31692         0.026140      0.050377     -0.108005
O	      4.11599      6.38322      8.40386        -0.036360      0.031159     -0.036266
O	      6.35696      8.59070      8.38698        -0.030267     -0.047290     -0.003303
O	      6.41213      6.29730     10.32364        -0.048235     -0.059269     -0.093323
O	      8.48979      8.46977     10.52151        -0.203327      0.019315     -0.077137
