# total energy = -232.92122306 eV
 
CRYSTAL
PRIMVEC
-0.001249 6.574925 6.460964 
6.189698 0.011760 6.447828 
4.129811 4.378129 0.004644 
PRIMCOORD
36 1
Li	      8.17088      2.42139      6.40137         0.009539      0.029254     -0.017355
Li	      8.23076      4.27975      4.39779        -0.046268      0.004582     -0.013601
Li	      6.19352      2.28154      4.41266        -0.022925      0.006342     -0.056081
Li	      8.15364      4.57564      8.39233         0.058124     -0.000061     -0.042531
Li	      6.19485      6.47254      4.28376         0.027281     -0.070718      0.031746
Li	      8.26963      6.53807      6.62949        -0.022036      0.024330     -0.040107
Li	      6.30822      4.16428      6.36844        -0.026104     -0.026847     -0.065715
Li	      4.29865      4.26384      8.61960        -0.046666      0.020985     -0.003608
Li	      6.22822      6.50241      8.64121        -0.069571      0.050494      0.046688
Sc	      8.23440      6.66070     10.63127         0.022734      0.006478      0.071558
Sc	      4.17514      6.47893      6.48574        -0.001284     -0.000678      0.026314
Ti	      4.00969      2.21355      2.30555        -0.006169      0.109058      0.271961
Mn	      6.19209      4.44568     10.71212         0.050272     -0.029110      0.124348
V	      6.24588      8.64818      6.49411        -0.034842      0.092224      0.062574
Fe	      5.99018      0.21810      6.37448         0.140778     -0.168330      0.112645
Fe	      6.15019      4.34989      2.25018        -0.079880     -0.042876     -0.145603
Cu	      6.23721      2.32083      8.52000         0.057588      0.016533     -0.056945
Cu	      4.14411      4.37377      4.32207        -0.016505     -0.010782     -0.034540
O	      2.06488      2.02725      2.09613         0.131347      0.087935     -0.017264
O	      4.11519      4.12317      1.89893        -0.024630     -0.201981     -0.069091
O	      4.06839      2.35001      4.11441        -0.010617     -0.107774     -0.314442
O	      6.10518      4.33079      4.15700         0.106291      0.013197      0.189883
O	      6.20175      2.13318      6.52153         0.022917      0.170833     -0.161332
O	      8.25641      4.42087      6.40919        -0.210702     -0.012115     -0.001756
O	      2.07263      4.45325      4.49438        -0.042828     -0.031757      0.108805
O	      4.17369      6.44621      4.34971         0.028905      0.089889      0.114614
O	      4.05953      4.46604      6.61631        -0.031458     -0.056393      0.102085
O	      6.22508      6.82722      6.51413         0.027471     -0.060043     -0.006988
O	      6.25406      4.49865      8.85450         0.043071      0.079999     -0.037941
O	      8.40073      6.58850      8.65366        -0.117266      0.003743     -0.083505
O	      2.05807      6.33622      6.47808         0.002937      0.009125      0.037015
O	      4.21170      8.67042      6.33209         0.013833      0.045059      0.012216
O	      4.04036      6.80150      8.55110         0.082230      0.033461     -0.003146
O	      6.03118      8.84595      8.48038         0.007446     -0.009424     -0.056721
O	      6.20678      6.63762     10.86170         0.029029     -0.043474     -0.072612
O	      8.39355      8.70027     10.77937        -0.052043     -0.021157     -0.011565
