# total energy = -233.53875701 eV
 
CRYSTAL
PRIMVEC
0.014806 6.304292 6.315939 
6.337589 0.027693 6.303469 
4.254989 4.224985 -0.011639 
PRIMCOORD
36 1
Li	      4.25921      4.26114      0.07510        -0.044582      0.040850     -0.046556
Li	      2.07733      2.09870      0.09679         0.028418     -0.001351     -0.035406
Li	      6.23664      4.33015      2.06416        -0.015446      0.008343      0.013726
Li	      0.16340      2.10388      2.00065        -0.026793      0.044963     -0.030152
Li	      4.23033      4.29215      4.08712        -0.045196     -0.017408     -0.058902
Li	      6.39223      4.19690      6.39062         0.029948     -0.033752     -0.020554
Li	     10.59270      8.42047     10.46399         0.033898     -0.042444     -0.026592
Li	      6.31429      8.47394      6.38807        -0.033235      0.001123      0.031248
Li	      4.33428      4.22345      8.41180         0.090125     -0.097182      0.008818
Sc	      6.37892      2.20914      4.19506        -0.008568      0.072658      0.063779
Sc	      4.25825      2.22458      6.35980         0.128573      0.056683     -0.013284
Ti	      4.21358      6.26637      6.28140        -0.121553     -0.041654     -0.111317
Mn	      8.52841     10.50188     10.53685         0.001160     -0.015149      0.120943
V	      2.17773      6.23479      4.23330         0.030150     -0.164390     -0.001993
Fe	      4.19108      2.24684      2.02428        -0.035343     -0.035183      0.107079
Fe	      6.34320      6.23031      8.39571         0.033417      0.060218     -0.030526
Ni	      8.47294      4.20980      8.33366        -0.001604      0.025390      0.007100
Ni	      2.11748      2.09876      4.17750        -0.089066      0.132164      0.063350
O	      2.18277      2.15011      2.17586        -0.014751     -0.141373     -0.165120
O	      4.20432      4.16631      2.05183         0.134665      0.118046      0.020873
O	      4.21995      2.20597      4.22049         0.126265     -0.026633     -0.024033
O	      6.56139      4.25881      4.14573        -0.010533     -0.084297      0.042916
O	      6.26321      2.15296      6.25272         0.037133      0.009708     -0.037836
O	      8.49713      4.28782      6.13741        -0.013502     -0.017383     -0.022896
O	      2.11960      4.40432      4.15957        -0.030858     -0.001016      0.084151
O	      4.20450      6.30582      4.32860        -0.117724     -0.013407      0.167235
O	      4.23683      4.33163      6.37185        -0.022267      0.127063     -0.012636
O	      6.28781      6.35679      6.29664        -0.059611     -0.017005      0.087749
O	      6.43227      4.31708      8.39961        -0.144639     -0.115913      0.025907
O	      8.39721      6.32138      8.44225         0.026869      0.130937      0.014360
O	      2.25570      6.27891      6.19582         0.091109     -0.012706      0.054183
O	      4.22243      8.20973      6.41141        -0.000631     -0.126329     -0.137313
O	      4.30712      6.30365      8.48934        -0.085333      0.009575     -0.123754
O	      6.21711      8.31581      8.45586         0.112128      0.028412     -0.060239
O	      6.35739      6.32319     10.48237        -0.037959      0.001702      0.009632
O	      8.44447      8.18816     10.46550         0.055337      0.136741      0.036059
