# total energy = -239.54342103 eV
 
CRYSTAL
PRIMVEC
-0.023799 6.412194 6.313409 
6.349564 0.000867 6.288406 
4.209998 4.235233 0.023744 
PRIMCOORD
36 1
Li	      4.19717      2.14871      2.12404        -0.032974     -0.015144     -0.007288
Li	      6.27973      2.13987      4.26406        -0.034985      0.035443      0.081834
Li	      2.17511      4.24719      2.11685         0.090999     -0.052246     -0.017525
Li	      4.18750      4.25960      4.26358         0.004295      0.006664      0.049520
Li	      4.26418      2.17719      6.25013         0.066924      0.047577     -0.018343
Li	      6.28743      4.20977      6.26749        -0.038521     -0.086179     -0.043630
Li	      4.19407      8.46363      4.26585         0.018466     -0.020418     -0.001908
Li	      2.16577      6.35570      4.24407         0.047654     -0.047378     -0.009570
Li	      4.19617      6.38069      6.25944        -0.012605     -0.004601      0.033643
Sc	      6.26065      4.18522      2.14354         0.092285      0.186111      0.013081
Sc	      2.12929      2.19072      4.25200         0.083634     -0.008851     -0.119194
Ti	      6.38602      6.29545      8.43950        -0.007720     -0.120270     -0.000046
Mn	      4.17589      6.34929      2.14892         0.145876     -0.020958     -0.201324
V	      8.48227      8.53673     12.56707         0.066479      0.001735     -0.000486
Fe	      4.24664      0.06432      4.24738        -0.144989     -0.309234      0.221464
Fe	      2.12043      4.30531      6.22439        -0.222967      0.146193      0.093126
Fe	      8.42447      8.50181      8.42028        -0.034945      0.038041      0.241082
Co	      6.30957      6.39270     12.54946         0.011817     -0.036214      0.016288
O	      2.13923      2.08436      2.08909        -0.101251     -0.006189      0.167138
O	      4.23568      4.31596      2.10896        -0.096980      0.013287      0.018786
O	      4.19800      2.02441      4.23350         0.027756      0.163931     -0.010267
O	      6.39700      4.28185      4.19421        -0.071986     -0.003874      0.013942
O	      6.47153      2.07664      6.44056        -0.169521      0.176650      0.104868
O	      8.45771      4.12484      6.25210         0.077510      0.044550      0.125555
O	      2.10951      4.23652      4.31032         0.015198     -0.000335     -0.199941
O	      4.24150      6.38587      4.04819        -0.083537      0.028260     -0.059726
O	      4.11175      4.28583      6.42384         0.123279      0.019325     -0.103102
O	      6.26655      6.48047      6.42067        -0.019748     -0.062357      0.079838
O	      6.25867      4.36053      8.36408         0.050824      0.066245      0.005307
O	      8.30161      6.45034      8.42470        -0.013271     -0.056766     -0.016107
O	      2.10650      6.41962      6.31267        -0.027400     -0.024462     -0.015396
O	      4.15988      8.55013      6.31794         0.098795      0.081840     -0.050769
O	      4.26775      6.32629      8.45810         0.045227      0.029874     -0.069534
O	      6.34201      8.47088      8.35859        -0.060987     -0.072575      0.035329
O	      6.25874      6.44045     10.34510         0.084361     -0.014437     -0.106505
O	      8.40699      8.61973     10.49573         0.023008     -0.123240     -0.250140
