# total energy = -237.64346755 eV
 
CRYSTAL
PRIMVEC
-0.008026 6.237705 6.412852 
6.378829 -0.004924 6.410197 
4.248523 4.152579 0.000420 
PRIMCOORD
36 1
Li	      2.17359      6.17546      8.49225         0.017921     -0.001641     -0.070172
Li	      6.36502      8.26347     10.62035        -0.041689     -0.029709     -0.069061
Li	      2.07152      4.13415      2.22297        -0.007447     -0.011905      0.101956
Li	      6.31532      6.31868      4.38378        -0.014234      0.075793      0.077180
Li	      6.31639      4.16257      6.45675        -0.067554      0.002585      0.027789
Li	      4.30787      8.26687      4.31562         0.021855     -0.009376      0.030573
Li	      2.14722      4.14607      6.41439         0.021444      0.013269     -0.004567
Li	      4.26934      6.20769      6.32168         0.003367      0.021847     -0.071206
Li	      4.16862      4.15896      8.47181        -0.057900      0.014723     -0.061019
Sc	      4.28741      2.15996      2.11300         0.005307     -0.036493     -0.055648
Sc	      6.37330      6.15159      8.52579        -0.068344     -0.010131     -0.063909
Ti	      8.27055      4.06386      4.27450        -0.405677      0.003475     -0.168346
Mn	      6.40847      2.15057      8.57456         0.032834     -0.015773      0.099560
V	      4.26371      4.17252      4.30705         0.033092      0.022492     -0.008498
Fe	      2.15103      2.05513      0.05031        -0.008752     -0.036931     -0.071467
Fe	      8.44796      6.27545      6.42773         0.091731     -0.029090     -0.011404
Fe	      2.08887      6.19435      4.29796         0.088704      0.112196     -0.037964
Ni	      6.39415      6.24125     12.76548         0.114934     -0.109092      0.027944
O	      2.19439      2.11424      2.00427        -0.028671      0.061242      0.146054
O	      4.30707      4.27819      2.22654         0.022308     -0.097129     -0.011526
O	      4.25174      2.01075      4.32205         0.017075     -0.129506     -0.028092
O	      6.41957      4.14503      4.27093         0.393028     -0.056178      0.004518
O	      6.36877      2.04032      6.57000        -0.031578      0.140965      0.022136
O	      8.56938      4.17380      6.23122        -0.102830      0.044260     -0.035048
O	      2.28165      4.24851      4.27728        -0.079032     -0.176442     -0.039317
O	      4.16565      6.23727      4.17057         0.069680      0.130429     -0.031321
O	      4.30240      4.07840      6.26943         0.038733      0.080442      0.099550
O	      6.49599      6.20193      6.45483        -0.101969     -0.043282      0.082835
O	      6.37140      4.06009      8.55719        -0.001222      0.015727      0.002457
O	      8.45098      6.23042      8.54394        -0.013758     -0.001068     -0.019080
O	      2.09282      6.31357      6.28810         0.031550     -0.056413      0.077674
O	      4.14328      8.33668      6.45130         0.119697     -0.019850      0.049966
O	      4.25690      6.25208      8.74614        -0.009992     -0.042833      0.163601
O	      6.29788      8.25137      8.52400         0.023162      0.014730      0.008381
O	      6.42054      6.20711     10.67337        -0.035751      0.005752     -0.078903
O	      8.43405      8.38677     10.79487        -0.070024      0.152912     -0.085627
