# total energy = -241.02224007 eV
 
CRYSTAL
PRIMVEC
0.023668 6.292057 6.494987 
6.340980 0.016325 6.501829 
4.239532 4.211368 -0.001007 
PRIMCOORD
36 1
Li	      6.32655      6.32956     12.89012         0.006704      0.017366      0.035523
Li	      2.34235      6.21811      8.72013        -0.048715     -0.000585      0.032783
Li	      4.26742      8.24582      8.63889        -0.003412      0.056584     -0.002832
Li	      8.46688     10.44509     10.74577         0.022580     -0.022804     -0.004506
Li	      6.44169      8.36522     10.70118        -0.038905      0.042611     -0.028693
Li	      8.48263      4.22184      8.61789         0.023161     -0.019020     -0.044128
Li	     10.55261      8.46380     10.90617         0.015943     -0.009919      0.029236
Li	      4.20232      6.34687      6.68081         0.009569     -0.017286      0.033580
Li	      8.39967      8.49271      8.72210         0.053654      0.008919     -0.039707
Sc	      6.27575      8.50594      6.58999        -0.025509      0.023082      0.004778
Sc	      6.24710      6.27511      8.74605        -0.068436      0.007809      0.060118
Ti	      2.19403      2.10506      4.22383         0.164248     -0.017506     -0.059176
Mn	      4.26547      4.17493      4.27005        -0.011858      0.024316     -0.023225
V	      4.23154      6.27750      2.17179        -0.010503     -0.121932      0.017183
Fe	      2.27300      8.43758      6.41739        -0.087085      0.003553      0.101856
Fe	      8.50544      6.22680      6.49741         0.021827     -0.014983      0.027365
Fe	      6.31930      4.18078      6.50291        -0.017289      0.096682     -0.047538
Fe	      8.42735      6.42464     10.83472         0.158654     -0.110119     -0.027302
O	      2.05224      2.14201      2.29980         0.011192     -0.053490      0.073818
O	      4.25978      4.48597      2.13058         0.004513      0.036659     -0.006592
O	      4.06295      2.07705      4.28798        -0.232529     -0.066646     -0.073052
O	      6.34128      4.36964      4.44428         0.043214      0.114449     -0.065398
O	      6.45172      2.17589      6.62417         0.055408     -0.058217     -0.023138
O	      8.37680      4.18655      6.50319         0.028286     -0.078792      0.009443
O	      2.10169      4.11124      4.42861         0.007573     -0.043684     -0.034246
O	      4.26594      6.38025      4.16007         0.012380      0.066758      0.008542
O	      4.26520      4.08027      6.47765         0.006877      0.127110     -0.048005
O	      6.29937      6.28377      6.43395        -0.026421      0.022728      0.000129
O	      6.36624      4.11051      8.52476        -0.015174      0.011174      0.058682
O	      8.56323      6.31425      8.78102        -0.008489     -0.015294     -0.015438
O	      2.20359      6.35070      6.35646        -0.074258     -0.014467      0.111684
O	      4.20057      8.46071      6.55956         0.108339      0.014929     -0.012432
O	      4.29861      6.25661      8.69004        -0.008595     -0.021871      0.038231
O	      6.35159      8.36304      8.59863         0.006829     -0.051090      0.024701
O	      6.49075      6.30359     10.76926        -0.143816     -0.023192     -0.004898
O	      8.47388      8.37561     10.96265         0.060043      0.086166     -0.107346
