# total energy = -232.72659293 eV
 
CRYSTAL
PRIMVEC
-0.008363 6.329561 6.230889 
6.410347 -0.015640 6.238885 
4.256826 4.207832 0.006490 
PRIMCOORD
36 1
Li	      2.13850      0.09411      2.16293        -0.016252     -0.008928      0.049217
Li	      4.19796      2.04807      2.17752        -0.024253     -0.006437      0.019691
Li	      6.29419      2.06094      4.12492        -0.033101      0.007618     -0.020441
Li	      4.38023      6.29539      2.19683         0.068149      0.015378     -0.051641
Li	      2.11917      4.14482      2.21701        -0.024475     -0.025273     -0.018702
Li	      2.01738      2.16290      3.99738         0.010886      0.019761     -0.041609
Li	      4.35193      8.26565      4.14778         0.054778     -0.005356     -0.016987
Li	      2.32575      6.18524      4.07448         0.020002     -0.002044     -0.101365
Li	      4.26032      6.33046      6.01708         0.036065      0.028512     -0.096645
Sc	      6.37099      8.34926      6.15300        -0.011285      0.016104     -0.064640
Sc	      8.52226      8.46568      8.49045         0.007441      0.007508      0.065273
Ti	      4.32148     10.50762      6.33712         0.252779     -0.211311      0.129110
Mn	      2.16017      8.38991      6.27796         0.083326     -0.071019      0.094636
Mn	      8.51986      6.28301      6.22233        -0.028099     -0.028804     -0.128947
V	      6.36105      4.22184      6.17541        -0.020550      0.043942      0.059353
Co	      8.53365      4.21888      4.22999         0.026265      0.001052     -0.056225
Cu	      6.40893      6.36325      8.43134        -0.033071      0.000923      0.076300
Ni	      4.19440      4.33806      4.00535         0.095961     -0.148026     -0.025318
O	      2.14941      2.06924      1.89309        -0.002399     -0.012577     -0.109983
O	      4.22108      4.22038      1.97339         0.003632     -0.018648     -0.446614
O	      4.28699      1.97990      4.28944        -0.044035     -0.057471      0.079274
O	      6.47477      4.16683      4.31163         0.065760     -0.020176      0.024197
O	      6.27890      2.13519      6.27759        -0.124055     -0.001560      0.034081
O	      8.45618      4.10264      6.19329        -0.032102     -0.040009     -0.053868
O	      2.17833      4.21097      4.15693        -0.072200      0.006240      0.101561
O	      4.25674      6.30964      4.11195         0.029743      0.108420     -0.048687
O	      4.34583      4.28632      6.21182        -0.006806      0.001909      0.110609
O	      6.49973      6.22863      6.11758         0.091135     -0.047408     -0.084825
O	      6.37655      4.28549      8.07067        -0.051970     -0.065730     -0.057936
O	      8.40093      6.36213      8.18708         0.015336      0.022883      0.079684
O	      1.97230      6.34921      6.19435        -0.299411      0.030106      0.026489
O	      4.31685      8.55240      6.25389         0.072364      0.180730      0.013613
O	      4.39212      6.33772      8.52713         0.007041      0.021010      0.154799
O	      6.48908      8.40507      8.27905         0.058159      0.181761      0.029241
O	      6.16532      6.35412     10.62872        -0.145038      0.025949      0.293773
O	      8.53864      8.54755     10.52497        -0.029719      0.050968     -0.016466
