# total energy = -231.10061922 eV
 
CRYSTAL
PRIMVEC
0.005780 6.331265 6.381898 
6.329129 -0.014868 6.403052 
4.200612 4.215721 0.009042 
PRIMCOORD
36 1
Li	      8.36707      2.19106      6.25974         0.015575     -0.022260     -0.042127
Li	      8.31039      4.32262      8.48069         0.013815      0.007817     -0.028379
Li	      4.19539      4.24021      4.39995        -0.004235      0.014750      0.068416
Li	      8.44097      6.17022      6.45331        -0.053883      0.018935      0.031598
Li	      6.42044      4.20349      6.42350        -0.015113      0.006446      0.008620
Li	      6.33824      4.31513     10.56023        -0.032203     -0.054082     -0.032651
Li	      8.32825      6.21039     10.63762         0.053817     -0.043417     -0.045954
Li	      2.16486      4.23534      6.32741        -0.004706     -0.014659     -0.009262
Li	      6.42492      6.18147      8.58988        -0.013546     -0.014432      0.004074
Sc	      6.29881      2.09530      8.42437        -0.114788      0.061363      0.006322
Sc	      8.44725      8.39446      8.54262         0.071777     -0.104617     -0.024837
Ti	      2.08182      2.28987      4.34355        -0.213523      0.478097      0.366553
Mn	      6.32411      4.21439      2.16783        -0.018266     -0.063778     -0.072118
Mn	      4.17942      6.29147      6.35400         0.063646     -0.009711     -0.014201
V	      4.24273      8.46319      8.49070         0.037305      0.062760     -0.097681
Cu	      8.47415     10.50367     10.73298        -0.009879      0.026465      0.000065
Ni	     10.47224      4.20382      6.36949         0.133209     -0.111866      0.076668
Ni	      6.33520      2.08004      4.37827        -0.011925      0.081246     -0.016173
O	      8.45538      4.20005      6.32934        -0.075386     -0.028815      0.084902
O	      2.18850      2.02570      2.23916        -0.012778     -0.058216      0.095837
O	      4.18756      4.09339      2.06259        -0.044871     -0.001196      0.111152
O	      4.13853      2.06921      4.09045        -0.115810      0.160384     -0.073499
O	      6.39764      4.22939      4.12053        -0.032453      0.132944      0.012281
O	      6.32108      2.04654      6.39983         0.011146      0.055343      0.132389
O	      2.12012      4.11533      4.26862        -0.036198     -0.557259      0.001272
O	      4.35941      6.29046      4.19691         0.239731      0.025595      0.016783
O	      4.17259      4.39161      6.43961         0.012767      0.073945      0.000216
O	      6.21390      6.31273      6.23663        -0.017606      0.069308     -0.328664
O	      6.28658      4.13659      8.51254        -0.049844     -0.096208      0.011116
O	      8.45189      6.36450      8.54639         0.034076      0.042915     -0.033719
O	      2.20779      6.32001      6.57275         0.014845      0.011489      0.055385
O	      4.20841      8.31263      6.63509         0.031612     -0.012536      0.073700
O	      4.29430      6.40331      8.55038         0.032334      0.051290     -0.099206
O	      6.21250      8.51924      8.61724         0.011853      0.141879     -0.057955
O	      6.26488      6.35128     10.73732        -0.007398     -0.081091     -0.143195
O	      8.39399      8.52205     10.63215         0.106903     -0.248827     -0.037730
