# total energy = -231.74350263 eV
 
CRYSTAL
PRIMVEC
-0.006726 6.261273 6.361045 
6.283211 -0.010891 6.365262 
4.208985 4.197168 -0.027402 
PRIMCOORD
36 1
Li	      4.27876      1.97886      2.38654        -0.022595     -0.060970      0.102376
Li	      4.21354      6.38907     10.47570        -0.094198     -0.020775     -0.017685
Li	      6.14223      8.29610     10.43311         0.004636      0.049667     -0.024947
Li	      2.24328      2.12117      4.17751         0.048113     -0.052512     -0.036042
Li	      4.17743      4.01819      4.19476         0.060947     -0.046774      0.017293
Li	      8.38331      6.27203     10.50387         0.042382      0.006109     -0.079054
Li	      4.19826      6.25432      6.47512         0.004007      0.021828      0.182417
Li	      8.33444      8.41654      8.57164        -0.075435      0.052873      0.080170
Li	      6.19568      6.36426      8.53411        -0.101403      0.075429     -0.030624
Sc	      8.40571      8.29817     12.62718         0.048393     -0.041169     -0.094835
Sc	      2.16171      4.15968      6.35260        -0.025822      0.002858      0.023577
Ti	      6.19409      4.30563      6.21287        -0.123690      0.156603     -0.777575
Mn	      6.36296      4.16529      2.18939        -0.028691      0.014050      0.042509
Mn	      4.17874      6.29832      2.14305         0.026819     -0.090106      0.081238
V	      6.26167      4.23694     10.55433        -0.016939     -0.035132      0.014056
Ni	      6.25735     -0.00391      6.33865        -0.027815     -0.026541     -0.062174
Ni	      2.14839      4.18188      2.18699         0.072663     -0.046830      0.024971
Ni	      4.21247      2.04140      6.28271        -0.062304      0.065836      0.087599
O	      4.21440      2.08233      4.30683         0.001624     -0.053050     -0.062102
O	      1.97095      2.02639      2.10495        -0.007408     -0.012709     -0.029666
O	      4.27067      4.34485      2.06653         0.064855      0.048304      0.058897
O	      6.28431      4.19131      4.40310        -0.011239      0.018529      0.802949
O	      6.29748      2.14574      6.50803         0.088847      0.102339      0.049517
O	      8.32376      4.14259      6.46256        -0.055843     -0.059798     -0.076302
O	      2.00040      4.16824      4.24312         0.030634     -0.024552      0.059338
O	      4.19509      6.45481      4.01833         0.013114     -0.007277     -0.110664
O	      4.28419      4.18507      6.34229         0.204690      0.079730      0.040032
O	      6.29959      6.19232      6.43457        -0.076970     -0.218750      0.039969
O	      6.32596      4.04826      8.50592        -0.100612      0.025706     -0.131996
O	      8.57876      6.20719      8.38251         0.051371      0.167836      0.099656
O	      2.02104      6.24452      6.31309         0.110433      0.021980     -0.035803
O	      4.21573      8.36567      6.18327         0.004646     -0.131057     -0.088621
O	      4.00528      6.28935      8.47700         0.062055     -0.015770      0.002979
O	      6.28655      8.46066      8.40018        -0.092202     -0.012602     -0.006533
O	      6.28307      6.07083     10.57664        -0.017217      0.043156     -0.124651
O	      8.50094      8.33516     10.61761         0.000153      0.003542     -0.020270
