# total energy = -232.88525491 eV
 
CRYSTAL
PRIMVEC
0.014348 6.353832 6.362869 
6.439329 0.000004 6.377053 
4.269229 4.221717 0.023581 
PRIMCOORD
36 1
Li	      4.34860      2.05493      2.34800         0.042994     -0.023288     -0.058118
Li	      4.27782      0.25033      4.21087         0.015366     -0.077306     -0.021712
Li	      6.20195      2.12791      4.26210         0.017510      0.017264      0.006500
Li	      2.40470      2.13496      4.32030        -0.038393      0.084768     -0.027898
Li	      4.24994      4.00848      4.33326        -0.031152      0.099713      0.041400
Li	      4.17928      2.18308      6.12500        -0.029870      0.022739      0.061257
Li	      6.47836      8.27919      6.40769         0.026078     -0.092742     -0.043678
Li	      4.42312      6.31608      6.43069         0.018920      0.011460     -0.044250
Li	      6.34356      6.46446      8.35965        -0.035893      0.039751     -0.054580
Sc	      6.44878      4.24075      2.32087         0.242724     -0.132613     -0.037815
Sc	      0.05171      4.20753      4.24084         0.137087      0.019075      0.120136
Ti	     10.62091      4.24570      6.36879        -0.113398     -0.183146     -0.314445
V	      4.21729      4.26000      8.41438        -0.139225      0.077747      0.081839
Fe	      4.28147      6.33259      2.15292        -0.074927      0.047612      0.187967
Fe	      6.42953      4.40887      6.23801         0.131932     -0.270812      0.131873
Fe	      2.18480      6.31220      4.27330        -0.097469     -0.088424      0.072289
Co	      2.17044      4.19112      2.15387         0.001823      0.098814     -0.039999
Cu	      8.55625      2.12130      6.38864         0.075911      0.053913     -0.109953
O	      4.30834      2.12619      4.22439         0.044230     -0.004019      0.007405
O	      1.99965      2.12130      2.22982         0.048841      0.158657      0.151156
O	      4.31012      4.29682      1.99794        -0.305078     -0.124099      0.165490
O	      6.42538      4.19586      4.33650         0.027643     -0.049783     -0.174673
O	      6.51039      2.03893      6.45054        -0.169397      0.056748     -0.061490
O	      8.61817      4.15081      6.42676         0.080901      0.134559     -0.269596
O	      2.10383      4.33991      4.23152        -0.022699     -0.077344      0.410876
O	      4.16056      6.37360      4.22620         0.107336     -0.023970     -0.008751
O	      4.42931      4.17981      6.57795        -0.046553     -0.025724     -0.128381
O	      6.42019      6.26165      6.38888         0.062489      0.195024     -0.001441
O	      6.40048      4.16287      8.45460         0.333975      0.023732     -0.058666
O	      8.65553      6.35244      8.59254        -0.003997     -0.193215     -0.121718
O	      2.00134      6.44928      6.33695        -0.118877     -0.141019      0.118581
O	      4.18020      8.62442      6.34760         0.061746      0.058852      0.080107
O	      4.24217      6.20317      8.48869        -0.020092      0.135555     -0.017900
O	      6.58418      8.49421      8.45211        -0.143199      0.004576     -0.028238
O	      6.51911      6.33330     10.78536        -0.059390      0.070168      0.066394
O	      8.65785      8.34354     10.36810        -0.027898      0.096775     -0.079966
