# total energy = -232.98764111 eV
 
CRYSTAL
PRIMVEC
0.005439 6.275662 6.281317 
6.508553 0.009903 6.276420 
4.340029 4.181905 0.005187 
PRIMCOORD
36 1
Li	      8.61133      2.18755      6.29925        -0.047578      0.030299      0.033663
Li	      6.43413      4.25252      2.28433        -0.024824      0.009334     -0.057704
Li	      4.23765      2.15638      2.25547        -0.036115      0.006629     -0.059520
Li	      6.51500      2.21732      4.09875        -0.027614      0.016465     -0.024920
Li	      2.22438      4.10045      2.13316         0.050184     -0.012230      0.030996
Li	      2.32645      1.99240      4.02689         0.080187     -0.008947      0.051175
Li	      4.45642      4.08996      4.05618         0.035769     -0.027636      0.027331
Li	     10.78617      8.37244     10.45275        -0.021558     -0.014766      0.066174
Li	      8.65999      8.38930      8.44081        -0.039639      0.016331     -0.045202
Sc	      4.36199      2.08996      6.17636         0.022763      0.020903     -0.112552
Sc	      4.30999      6.30410      6.26370         0.071586     -0.024772     -0.000566
Ti	      6.47082      6.22865      8.50219        -0.128066      0.053742     -0.078298
V	      2.16359      4.20755      6.22036         0.008568     -0.051468     -0.053270
Fe	      4.28946      4.13379      0.12381         0.059003      0.063251     -0.084774
Fe	      0.23878      2.10083      2.16455        -0.113417      0.109552     -0.022938
Fe	      8.69576      6.45576     10.39348        -0.005561     -0.181788      0.084866
Co	      6.52507      4.13756      6.18092        -0.001669      0.176129      0.160966
Ni	      8.58663      4.14727      4.14945         0.022690     -0.041899      0.045613
O	      2.08851      2.11358      2.10862         0.169892     -0.011414      0.009674
O	      4.34682      4.26586      2.04310         0.006608      0.043856      0.087880
O	      4.34639      2.04410      4.20677         0.051802      0.077765      0.089670
O	      6.55895      4.16595      4.24594        -0.103699     -0.074889      0.389128
O	      6.44729      2.05125      6.40942         0.011020      0.109845     -0.111270
O	      8.82338      4.18245      6.22866        -0.105411      0.020072      0.104760
O	      2.15041      4.24261      4.41469        -0.019071      0.043044      0.000228
O	      4.19800      6.31771      4.15149        -0.013151      0.011479      0.059906
O	      4.21256      4.21416      6.27524        -0.001067      0.004674      0.007561
O	      6.48419      6.30770      6.34109        -0.003207     -0.124425      0.024306
O	      6.51386      4.26444      8.27499        -0.046216     -0.059203     -0.291650
O	      8.51624      6.25521      8.41100        -0.049059     -0.021454     -0.023879
O	      2.15711      6.20866      6.25470        -0.020393     -0.016239     -0.011687
O	      4.48464      8.41558      6.29568         0.018558     -0.066786     -0.019592
O	      4.52366      6.25721      8.34656         0.174754     -0.020192     -0.081150
O	      6.53121      8.19976      8.17224         0.032373     -0.087670      0.019410
O	      6.58033      6.27708     10.40933        -0.025738     -0.037551     -0.202102
O	      8.66892      8.33133     10.47934         0.017300      0.069962     -0.012232
