# total energy = -236.49090926 eV
 
CRYSTAL
PRIMVEC
0.048672 6.377241 6.385252 
6.337245 0.037216 6.396791 
4.240722 4.275794 0.008662 
PRIMCOORD
36 1
Li	      4.32946     10.52404      6.39803         0.008357     -0.121657     -0.003712
Li	      4.28079      8.50599      8.36978        -0.010521      0.001376     -0.121696
Li	      6.32289      2.26923      8.59646        -0.020379      0.071224      0.029113
Li	      4.14977      4.36913      4.31186        -0.021187      0.062627      0.015265
Li	      6.34766      4.30942      6.52844         0.024113     -0.052142      0.031459
Li	      4.31657      8.47985      4.27436         0.011041     -0.022568      0.033592
Li	      2.22030      6.30681      4.25318         0.012773     -0.060902     -0.055052
Li	      2.07083      4.31718      6.34345        -0.058790      0.023362      0.004694
Li	      4.33225      4.25550      8.51105         0.001808     -0.009125     -0.001297
Sc	      8.55216     10.62224     10.72141         0.008487     -0.003881     -0.084626
Sc	      6.42151      8.52193     10.61479         0.099955      0.011769      0.157099
Ti	      4.32479      2.35238      6.46543         0.231147      0.239766      0.246897
V	      6.14959      4.25053      2.10103        -0.312177      0.080199     -0.109034
Fe	      2.06865      2.26636      4.22194         0.040874     -0.124785      0.039871
Fe	      4.24666      6.49865      6.36617         0.108757      0.089375     -0.052381
Fe	      6.36323      6.28275      8.48179         0.128393      0.032058      0.003176
Co	      8.44661      4.28710      8.51474        -0.009733     -0.046796      0.041773
Co	      2.15773      2.15414      0.06165        -0.330410     -0.139948      0.003838
O	      2.11752      1.99654      2.19597         0.062775     -0.150938     -0.077355
O	      4.38207      4.25788      2.10201         0.258202     -0.008720     -0.002826
O	      4.19090      2.10539      4.44450         0.002325     -0.025276     -0.010109
O	      6.41927      4.29497      4.09421        -0.056262      0.032617     -0.039310
O	      6.21866      2.19725      6.36421        -0.357072      0.049736     -0.026124
O	      8.50509      4.36453      6.41435        -0.039439     -0.192166     -0.097278
O	      2.18391      4.17221      4.14659        -0.019646      0.135942      0.003304
O	      4.35590      6.35760      4.39518        -0.065473      0.002456     -0.116490
O	      4.26688      4.18811      6.40134        -0.019864     -0.176885     -0.004842
O	      6.39120      6.41839      6.40063         0.057537     -0.029215     -0.018985
O	      6.40208      4.36792      8.51820        -0.011252     -0.075887     -0.007961
O	      8.39861      6.44988      8.39203         0.033848      0.089827     -0.165845
O	      2.24254      6.38344      6.53157        -0.173447      0.190906      0.056279
O	      4.25371      8.43632      6.38977         0.350234     -0.008523      0.005133
O	      4.28651      6.37597      8.48795        -0.060714      0.025694      0.051361
O	      6.35625      8.63509      8.55958         0.015799      0.079637      0.030076
O	      6.35608      6.46932     10.49025         0.016158      0.011841      0.135241
O	      8.44193      8.58259     10.75295         0.093783      0.019003      0.106750
