# total energy = -230.68716157 eV
 
CRYSTAL
PRIMVEC
-0.005534 6.348694 6.129524 
6.465605 -0.017736 6.143588 
4.307208 4.237568 -0.008026 
PRIMCOORD
36 1
Li	      4.30366      0.03288      4.07476        -0.015362      0.002663      0.030671
Li	      6.38344      2.12337      4.07750        -0.047127      0.000777      0.032832
Li	      4.21015      6.31959      2.18488        -0.027920     -0.013669     -0.089496
Li	      4.18888      4.31232      4.14849         0.034148     -0.034504     -0.008065
Li	      4.30689      2.12774      6.06415        -0.004979     -0.010131     -0.026140
Li	      4.34628      8.36842      4.03265        -0.008185      0.046346      0.004653
Li	      2.36847      6.22533      4.07173         0.029760      0.028373      0.057277
Li	      2.23093      4.33271      6.05009        -0.024461      0.008299      0.026027
Li	      4.29443      6.18829      6.06232         0.019367     -0.015710      0.072957
Sc	      8.62911      8.44073     12.07238         0.024627     -0.036608     -0.010941
Sc	      6.35132      6.46580      4.15384         0.058578      0.014243      0.067091
Ti	      6.60245      6.35003      8.27068         0.238955     -0.048884      0.150608
V	      6.44417      6.36071     12.21036         0.000325      0.046131     -0.136657
Fe	      6.52345     10.51403      8.23264        -0.143004     -0.034896     -0.015218
Fe	      4.32704      2.10757      2.17129        -0.053593     -0.045873     -0.266172
Fe	      6.31230      4.21948      6.10226         0.182966     -0.189247     -0.038359
Cu	      8.67367      8.43498      8.23511        -0.082327     -0.041631     -0.068532
Ni	      2.19202      4.27289      2.08607        -0.056444      0.002111     -0.048744
O	      2.25771      2.03416      2.02056        -0.019609     -0.021378     -0.017283
O	      4.36766      4.18566      1.93925         0.058777      0.062913      0.033882
O	      4.23918      2.13146      4.04267         0.015246     -0.003954      0.131623
O	      6.46684      4.22727      4.10244        -0.009754     -0.023669      0.024237
O	      6.50596      1.95112      6.14274        -0.009367      0.238370     -0.001017
O	      8.71291      4.19327      6.17794        -0.087535      0.034309     -0.129351
O	      2.17227      4.22428      4.07163        -0.002493      0.037345      0.150263
O	      4.35835      6.36930      4.10418        -0.010319     -0.074266      0.053168
O	      4.42471      4.16369      6.28710        -0.155730      0.008197      0.013154
O	      6.43803      6.23917      6.23861         0.033505      0.046633      0.049877
O	      6.56234      4.35776      8.10285         0.192782      0.116693      0.095595
O	      8.45980      6.33395      8.19822        -0.077107      0.068416      0.041496
O	      2.00464      6.37243      6.21018         0.032714     -0.004487     -0.067928
O	      4.25505      8.75324      6.11856        -0.010807     -0.185670      0.040005
O	      4.23707      6.41087      8.12256         0.077812     -0.017272      0.029855
O	      6.32802      8.39701      8.13901        -0.156328      0.016169     -0.002110
O	      6.40531      6.36469     10.16586        -0.002424      0.008856     -0.135688
O	      8.61451      8.46379     10.13838         0.005313      0.015006     -0.043571
