# total energy = -231.24084858 eV
 
CRYSTAL
PRIMVEC
0.015800 6.396945 6.350530 
6.297995 0.023861 6.342337 
4.204624 4.265181 0.010028 
PRIMCOORD
36 1
Li	      4.21204      4.23502      0.16039         0.014803     -0.056237      0.099103
Li	      6.24828      4.33220      2.13901        -0.050283      0.001086      0.034059
Li	      4.14359      2.22063      2.19130        -0.012868      0.064652      0.028436
Li	      4.12436      0.11409      4.20788        -0.027141      0.042868     -0.019181
Li	      2.20425      4.24199      2.15861        -0.025592     -0.053328     -0.028756
Li	      2.24054      2.14856      4.17767        -0.028182      0.005040     -0.023868
Li	      4.09686      4.21812      4.19180        -0.017845     -0.056187     -0.030160
Li	      2.14571      6.32036      4.25535         0.004441     -0.027107      0.067759
Li	      4.21738      4.27703      8.39593         0.007509      0.004028     -0.107799
Sc	      6.22189      2.21817      4.17844        -0.051804      0.063141     -0.062733
Sc	      0.09718      4.24850      4.19129         0.065008     -0.027185      0.031538
Ti	      6.32187      6.44962      8.47775        -0.158693      0.094750      0.139018
V	      2.14103      2.16834      0.06843        -0.004864     -0.026150      0.118649
Fe	      4.12855      6.17425      2.21206         0.047681      0.110429     -0.024105
Fe	      6.32433      4.31402      6.27518        -0.034881      0.007131      0.012108
Fe	      4.15322      6.32257      6.35922         0.075479      0.127149     -0.098926
Ni	      4.20103      2.12477      6.30242         0.009768     -0.006468     -0.037169
Ni	      2.12413      4.33722      6.34540        -0.028211     -0.028200      0.031542
O	      2.00010      2.12279      1.91860        -0.027953      0.036133     -0.042285
O	      4.19546      4.33109      2.12113        -0.008817     -0.132541      0.006329
O	      4.23407      2.11973      4.29328         0.104563     -0.004705     -0.128578
O	      6.32256      4.24156      4.32660         0.031264     -0.042658     -0.057039
O	      6.32952      2.22384      6.38976         0.100733     -0.036484     -0.005247
O	      8.33030      4.19901      6.36603         0.073682     -0.105807      0.003500
O	      2.06582      4.28603      4.34321        -0.101060     -0.010288     -0.123017
O	      4.20460      6.45369      4.18449        -0.036517      0.051183      0.157412
O	      4.24692      4.33537      6.35461         0.103701     -0.017044     -0.032909
O	      6.29564      6.37686      6.40566        -0.101183     -0.001048      0.089396
O	      6.30244      4.38530      8.43405         0.002672      0.038653      0.003360
O	      8.38422      6.42195      8.36716        -0.118990      0.044604      0.085921
O	      2.20627      6.46111      6.38767        -0.068577      0.127131      0.009407
O	      4.14713      8.47984      6.34679        -0.043008     -0.021466     -0.029816
O	      4.39139      6.40446      8.34414         0.212836      0.011091      0.025038
O	      6.35291      8.41486      8.44895         0.057416     -0.147197      0.102986
O	      6.33061      6.42416     10.38405         0.004316     -0.007137     -0.175924
O	      8.39705      8.54044     10.85417         0.030599     -0.021832     -0.018049
