# total energy = -237.05213317 eV
 
CRYSTAL
PRIMVEC
0.055971 6.343460 6.231125 
6.419910 0.049704 6.237632 
4.310128 4.263494 0.003273 
PRIMCOORD
36 1
Li	      2.27506      2.11099      0.19250         0.012976      0.044505     -0.026369
Li	      2.09893      0.12263      2.01013        -0.018186     -0.029391      0.032061
Li	      4.29873      8.44919      8.16264         0.008697      0.018872      0.114427
Li	      6.55744      2.17011      8.19284        -0.012339      0.030702      0.002949
Li	      8.51294      4.23603      8.24679        -0.038817     -0.002739      0.029427
Li	      6.52680      4.25460      6.29924         0.040870     -0.011219     -0.049160
Li	     10.73237      8.58258     10.44867        -0.018431     -0.001326     -0.013868
Li	      6.37121      8.49412      6.28525        -0.021025      0.006214      0.028564
Li	      4.27423      6.62763      6.28933        -0.010507      0.109346      0.029373
Sc	      2.11136      2.15575      4.07693        -0.050488      0.028580      0.033803
Sc	      4.36120      4.26142      8.17225         0.042767      0.025190     -0.074854
Ti	      2.23659      6.33499      4.29355         0.087546      0.000971      0.207507
V	      6.43200      2.19542      4.18380         0.039058      0.013370     -0.038779
Fe	      4.26089      4.14117      0.20358        -0.002209      0.138564     -0.036788
Fe	      8.64702     10.60921     10.39865        -0.029979     -0.034275     -0.030541
Fe	      4.29965      4.27715      4.09754         0.067728     -0.042138      0.008074
Fe	      6.48716      6.33431      8.20257        -0.039029      0.045478      0.073527
Co	      8.61720      6.39598      6.24819        -0.008492     -0.031629     -0.037758
O	      2.14077      2.13555      2.14960         0.015214     -0.019992     -0.006444
O	      4.35043      4.24400      2.13288         0.006316      0.039564      0.018916
O	      4.28800      2.21149      4.29553         0.004769      0.008228      0.032564
O	      6.38268      4.23169      4.17180        -0.046413      0.029704      0.003575
O	      6.26017      2.05486      6.16384        -0.041636     -0.018951      0.010606
O	      8.67786      4.43588      6.17654        -0.074051      0.047569      0.173378
O	      2.25733      4.35535      4.13789        -0.060919      0.072514      0.051652
O	      4.23551      6.31175      4.22263        -0.087084      0.056204      0.011067
O	      4.31334      4.10495      6.14320         0.012262     -0.113544      0.032788
O	      6.62376      6.41311      6.24923         0.068025     -0.019699     -0.080254
O	      6.41205      4.37438      8.31271         0.004644     -0.118872     -0.003189
O	      8.56298      6.41043      8.26990         0.038494     -0.015432     -0.022351
O	      2.11488      6.37116      6.12995         0.054328      0.012987     -0.231052
O	      4.33391      8.60809      6.21113         0.001451     -0.132787     -0.000489
O	      4.43627      6.34835      8.35554        -0.022639      0.025931     -0.173574
O	      6.53962      8.40374      8.41509        -0.004628      0.010689     -0.077567
O	      6.62912      6.45869     10.36248         0.050822     -0.046078      0.021317
O	      8.58779      8.38138     10.36268         0.030904     -0.127109     -0.012538
