# total energy = -234.40805806 eV
 
CRYSTAL
PRIMVEC
0.022719 6.337216 6.378800 
6.370918 -0.003435 6.404702 
4.241887 4.237099 0.003117 
PRIMCOORD
36 1
Li	      8.43264      2.22923      6.38421        -0.003004      0.011235     -0.010715
Li	      4.21087      2.09873      2.12871         0.016233     -0.008906     -0.017461
Li	      8.56409     10.49220     10.74761         0.014097     -0.038924      0.112549
Li	      6.34016      2.30755      8.39132        -0.005312     -0.026964     -0.028265
Li	      8.26200      4.28067      8.42049        -0.025613     -0.032759      0.003158
Li	      8.53664      6.18882      6.57082        -0.012125     -0.045338      0.068825
Li	      6.50900      4.18898      6.62671         0.013117     -0.009579     -0.100714
Li	      6.32055      4.27333     10.44510         0.021016     -0.017133      0.049773
Li	      6.42837      6.09865      8.57672        -0.015809      0.082844      0.013565
Sc	      6.36661      2.11835      4.32912        -0.099170      0.039469      0.068679
Sc	      6.40681      8.42772      6.48675        -0.069311     -0.072777     -0.021019
Ti	      2.24359      2.15148      4.17452         0.153149     -0.010757     -0.206838
V	      4.26614      6.40885      6.39102         0.026852      0.035184      0.023374
Fe	     10.41935      4.32619      6.48462         0.167564     -0.115697      0.057493
Fe	      2.15001      0.05536      2.12671         0.071033      0.066619     -0.088693
Fe	      4.23740      4.23894      4.12584         0.049678      0.019040     -0.009261
Fe	      8.52184      6.38727     10.48370         0.054489     -0.167600      0.147805
Ni	      4.39038      4.20844      8.53713        -0.158875     -0.031196     -0.096439
O	      2.12695      2.05338      2.31246         0.026915      0.083795      0.211712
O	      4.40219      4.19013      2.06127        -0.020988     -0.033708     -0.051879
O	      4.14467      2.09649      4.28064        -0.169330     -0.035935     -0.041679
O	      6.39527      4.31984      4.17569         0.076148      0.022217      0.066609
O	      6.33761      2.04106      6.36029         0.041742      0.120169     -0.038648
O	      8.57735      4.18298      6.42444        -0.202742     -0.012888      0.020856
O	      2.13560      4.14628      4.31580        -0.088555     -0.054389      0.011418
O	      4.27121      6.35253      4.38488        -0.022827      0.100107     -0.026058
O	      4.22107      4.44680      6.32330         0.000449     -0.066434      0.020019
O	      6.25903      6.38442      6.25306         0.082540      0.006777     -0.027006
O	      6.34259      4.22903      8.52052         0.130406      0.006385     -0.022436
O	      8.49151      6.36457      8.61224        -0.035695     -0.064424     -0.108246
O	      2.21792      6.31588      6.39603        -0.097358     -0.030385     -0.057022
O	      4.29708      8.28074      6.43062         0.033947      0.092691      0.006654
O	      4.18555      6.31293      8.35292         0.044881      0.056854      0.031213
O	      6.42423      8.55583      8.54193         0.039207     -0.020024     -0.025490
O	      6.49582      6.35485     10.80501        -0.056501     -0.004065     -0.042999
O	      8.45373      8.36403     10.63187         0.019752      0.156494      0.107168
