# total energy = -238.54452123 eV
 
CRYSTAL
PRIMVEC
-0.012130 6.315477 6.200095 
6.453238 -0.015934 6.202859 
4.293077 4.203259 -0.001724 
PRIMCOORD
36 1
Li	      6.47278      6.28583     12.30034         0.015062     -0.038689      0.006586
Li	      6.47908      4.16893      2.18719         0.025184      0.014636     -0.048656
Li	      4.35640      6.26446     10.21214         0.012258     -0.008352     -0.024703
Li	      6.41256      6.26299      4.10654         0.015613      0.026005      0.024563
Li	      4.33992      4.19436      4.08752        -0.013500     -0.029997     -0.003354
Li	      6.45513      4.36499     10.27859         0.037946      0.092476      0.075487
Li	      8.45995      6.30207     10.29221        -0.044488     -0.016757      0.021945
Li	      8.65053      8.45485      8.38451         0.054716     -0.005870     -0.007788
Li	      6.36069      6.27388      8.38484        -0.058258      0.026258     -0.080473
Sc	      8.59146      8.41325     12.30248         0.201500     -0.153325      0.096489
Sc	      4.25551      2.10407      6.16140        -0.129524     -0.050666     -0.009096
Ti	      4.24382      6.25653      6.15305        -0.403324      0.277917      0.040941
V	      4.29529      2.11462      2.10673        -0.321354      0.152662     -0.242830
Fe	      6.48586      8.30802     10.17760         0.123023      0.168947     -0.049856
Fe	      4.28131      6.28318      2.25625         0.118375     -0.171267     -0.125973
Fe	      2.12029      4.23125      2.26285         0.087633     -0.105387      0.064016
Fe	      6.43692      4.21450      6.12537         0.147602     -0.011532      0.169690
Fe	      2.14001      4.23694      6.14049         0.013124     -0.040613      0.019825
O	      2.13424      2.15114      2.07858        -0.158361     -0.097989      0.023467
O	      4.18267      4.18667      2.06585         0.135209      0.132389      0.002788
O	      4.37691      2.09103      4.11045        -0.021235     -0.033993      0.144094
O	      6.44555      4.06831      4.22070        -0.064497      0.094793     -0.051085
O	      6.44502      2.12424      6.25646        -0.076454      0.024976      0.014103
O	      8.50189      4.21144      6.29060        -0.070603      0.046477     -0.072655
O	      2.13329      4.20845      4.17064         0.000988     -0.017623     -0.463963
O	      4.34121      6.27377      4.20901         0.026883     -0.024817      0.256466
O	      4.34669      4.25743      6.26142         0.383275      0.120415      0.012520
O	      6.41619      6.24567      6.19684        -0.085270     -0.452120      0.043464
O	      6.53896      4.07091      8.25110        -0.176456      0.151684     -0.097737
O	      8.73691      6.21867      8.24911        -0.064606      0.175144      0.007145
O	      2.30403      6.34100      6.17558         0.369442      0.429184      0.004279
O	      4.24935      8.32917      6.22014        -0.351293     -0.146258     -0.029009
O	      4.29456      6.43521      8.10377         0.067702     -0.317017     -0.068946
O	      6.30820      8.44522      8.18388         0.207894      0.030323      0.481021
O	      6.43404      6.41734     10.33579        -0.062662     -0.231721      0.005591
O	      8.48266      8.43800     10.32600         0.058456     -0.010291     -0.138355
