# total energy = -91.13434856 eV
 
CRYSTAL
PRIMVEC
2.054041 3.951157 1.983124 
4.014315 -1.932456 -1.976163 
0.025709 3.946609 -3.982854 
PRIMCOORD
16 1
Li	      1.93631      1.92820     -0.00161        -0.095224     -0.320781      0.515969
Li	      3.86883      1.93278     -1.92567         0.651511     -0.152574     -0.009332
Li	      0.02310      1.92666     -1.93699        -0.528240     -0.396340      0.376040
Li	      3.98717      3.82746     -3.84672        -0.030015      0.292719     -0.109742
Mn	      5.86796      5.74140     -3.83650         2.410625      1.806069     -1.881690
Mn	      1.95303      0.05097     -1.92411        -1.156670     -2.872264      0.553953
Ni	      1.94735      3.82949     -1.88213        -1.217726      0.529622     -0.100694
Ni	      1.96381      1.90187     -3.81233        -0.357980     -0.834278     -1.893486
O	      3.82505      3.83280     -1.78532         1.803482      0.597638     -0.684921
O	      3.94204      1.95264     -3.96639         0.262354     -0.667106     -0.094095
O	      4.05572      2.01434      0.01754        -0.673772     -0.667443      0.704740
O	      3.73279     -0.05763     -1.91532         1.814580     -1.069964      0.092052
O	      2.10623      3.80430      0.06257        -0.805119      0.504459      1.851277
O	      1.99010      1.83250     -1.91426        -0.631423      0.945705      1.251677
O	      2.00673      5.80577     -1.94962        -0.852558      1.128559      0.296674
O	      1.84448      3.83283     -3.89370        -0.593826      1.175979     -0.868421
