# total energy = -249.08192099 eV
 
CRYSTAL
PRIMVEC
0.003454 6.340305 6.526788 
6.431088 -0.017051 6.547134 
4.279830 4.234307 -0.005079 
PRIMCOORD
36 1
Li	      6.50489     10.50974      8.78374         0.037432      0.026166     -0.018831
Li	      4.47161      8.31855      8.87985         0.022414     -0.022837     -0.010798
Li	      4.24950      0.23446      4.14328         0.009286      0.019527     -0.054768
Li	      6.20409      2.16168      4.21379        -0.033823      0.056630     -0.033523
Li	      2.32160      2.08634      4.22316         0.037087     -0.012635     -0.008202
Li	      4.28488      2.14989      6.28570        -0.036058      0.030723     -0.029180
Li	      6.32594      8.35540      6.75784         0.004753      0.002991      0.028567
Li	      4.42359      6.36913      6.68251        -0.000053     -0.029952      0.055192
Li	      6.24150      6.48059      8.61342         0.020617      0.033071      0.032229
Sc	      2.14551      6.30687      4.37587        -0.001558      0.018628      0.009500
Sc	      4.18915      4.33061      8.67458        -0.041629      0.040044      0.029701
Ti	      6.41970      0.10201      6.54088         0.181791      0.271230      0.102587
Ti	      6.44827      4.42582      6.32250        -0.192357      0.449354     -0.326344
Ti	      4.33231      8.34599      4.48231        -0.169697     -0.186541      0.119544
Mn	      2.15868      2.08216      0.08925         0.008144     -0.082527     -0.069162
V	      8.53752      4.20253      8.71435        -0.109759     -0.019230      0.028062
Co	      4.32209      4.12144      4.43469         0.040078      0.015879     -0.019188
Cu	      4.27307      6.34184      2.18937        -0.007675     -0.044905     -0.025596
O	      1.95611      2.21890      2.18282         0.129573      0.003633      0.057349
O	      4.13440      4.27068      1.99162         0.113333     -0.056537     -0.121652
O	      4.26565      2.21136      4.29006         0.031822      0.052944      0.048921
O	      6.43524      4.27212      4.48545         0.021764      0.027932      0.416606
O	      6.40043      1.96190      6.37185        -0.002773     -0.211036     -0.130580
O	      8.51717      4.20425      6.60126        -0.018901      0.113417      0.126844
O	      2.03992      4.21954      4.29212        -0.044638     -0.022565     -0.121359
O	      4.23109      6.40562      4.55597        -0.012218      0.153184      0.149882
O	      4.54635      4.18550      6.59133         0.169632      0.024324     -0.073288
O	      6.47798      6.21645      6.55717         0.044491     -0.548933     -0.029405
O	      6.49558      4.16894      8.81948        -0.093783      0.060963      0.002175
O	      8.68173      6.26440      8.83369         0.026681     -0.082393      0.039352
O	      1.90231      6.31246      6.50276        -0.300350     -0.063521     -0.102364
O	      4.29762      8.52948      6.38424        -0.005388      0.057166     -0.252049
O	      4.26662      6.30347      8.68277         0.043078      0.020948      0.022853
O	      6.50917      8.41609      8.72465         0.025409      0.009359      0.003315
O	      6.46622      6.14651     11.05977        -0.004127     -0.043101      0.155838
O	      8.80673      8.36295     10.83370         0.107404     -0.061400     -0.002228
