# total energy = -249.48125236 eV
 
CRYSTAL
PRIMVEC
0.031809 6.391017 6.340437 
6.393290 0.036635 6.335185 
4.270647 4.265544 0.015989 
PRIMCOORD
36 1
Li	      2.18071      2.18976      0.03998        -0.019711      0.037511      0.000332
Li	      8.55189      4.26263      4.31880         0.041612     -0.030713      0.020758
Li	      8.49580      4.29428      8.39821         0.007325     -0.021700     -0.020488
Li	      6.42421      6.41143      4.37064         0.037572     -0.016629     -0.114931
Li	      8.37807      6.34700      6.37485         0.055314     -0.048172      0.017488
Li	      4.27842      8.54405      4.31402        -0.026461      0.032824      0.003945
Li	      6.36314      8.32464      6.36502        -0.016172      0.048627      0.010041
Li	      4.46564      6.48273      6.29420        -0.011048      0.022988     -0.015548
Li	      6.47547      6.38403      8.29102         0.040511     -0.000141      0.064291
Sc	      4.22627      8.45159      8.39218        -0.065776      0.001507     -0.003528
Sc	      6.40982      2.18333      4.28196        -0.008748     -0.027876      0.058672
Ti	      4.25800      4.27656      4.39370        -0.091217      0.041638      0.211042
Ti	      2.13095      6.33075      4.31137        -0.020205     -0.134351      0.139546
Ti	      4.36178      4.32035      8.40874         0.218704      0.025382     -0.076456
Mn	      0.11215      2.16275      2.08492        -0.012336      0.073501      0.026791
V	     10.55977      4.27076      6.34706        -0.047560     -0.011740      0.004122
Co	      6.52276      4.45060      6.34627        -0.134830     -0.104614      0.095673
Ni	      2.16466      6.40649      8.37365        -0.007498      0.009913     -0.078503
O	      2.19806      2.06808      2.13096         0.066991      0.120210      0.018368
O	      4.29778      4.21265      2.16891        -0.072665     -0.044208      0.083855
O	      4.31440      2.31074      4.19075        -0.000137      0.088225      0.008750
O	      6.22897      4.27365      4.18763         0.034104      0.054274      0.181080
O	      6.40965      2.08531      6.31186         0.039677      0.268388     -0.117254
O	      8.58953      4.29592      6.33006         0.080188      0.043311      0.000360
O	      2.28529      4.40350      4.19665         0.057099      0.067344      0.065692
O	      4.14260      6.25901      4.27922        -0.036730     -0.034436      0.048519
O	      4.30562      4.25060      6.31928        -0.199022      0.055992     -0.092342
O	      6.41285      6.38001      6.32383         0.043686     -0.445971     -0.002616
O	      6.25004      4.33154      8.48826        -0.087636      0.126020     -0.202911
O	      8.53651      6.60401      8.59376        -0.054456      0.065421      0.027633
O	      2.04290      6.43588      6.21958         0.013077      0.010221     -0.210985
O	      4.30995      8.63224      6.36345         0.021579     -0.099692     -0.001512
O	      4.22884      6.30030      8.47112         0.131788     -0.041708     -0.039392
O	      6.50532      8.58737      8.47715         0.002071     -0.142005     -0.006707
O	      6.54546      6.45594     10.59533         0.057086     -0.000707     -0.037874
O	      8.54103      8.46773     10.44300        -0.036175      0.011364     -0.065913
