# total energy = -252.78828912 eV
 
CRYSTAL
PRIMVEC
-0.029439 6.418051 6.400072 
6.330368 0.042461 6.328296 
4.271807 4.282073 -0.022868 
PRIMCOORD
36 1
Li	      4.32540     10.52218      6.42853        -0.008127     -0.009160      0.024281
Li	      2.12470      6.44583      8.38372         0.071391      0.010117     -0.059991
Li	      4.24827      8.53353      8.31024        -0.018587     -0.021892      0.076050
Li	      0.01518      2.09307      2.06873         0.020684     -0.022645     -0.032175
Li	      6.35360      6.47493      4.29715        -0.025824      0.014181     -0.025599
Li	      8.41212      6.45769      6.33030        -0.036860      0.037030     -0.014220
Li	      4.28159      8.55109      4.43566        -0.036092      0.008379     -0.035725
Li	      6.10092      8.50410      6.42748         0.019511     -0.015304      0.044798
Li	      4.28881      6.62637      6.38211        -0.022242     -0.062264      0.030516
Sc	      6.33098      2.15010      4.22107         0.015735      0.077848      0.070246
Sc	      4.18107      4.31725      8.36384        -0.004735      0.019846     -0.023098
Ti	      2.09448      4.17249      2.06240         0.094021     -0.418768      0.004094
Ti	      4.23475      4.29442      4.19176         0.041927      0.053874     -0.118887
Ti	      2.15496      6.39161      4.39069         0.143801     -0.028589      0.374735
Mn	      4.24383      0.09619      4.21215        -0.170583     -0.004054      0.133836
V	      6.32868      4.37913      6.34094         0.167439      0.046028     -0.228532
Co	      2.21549      8.51771      6.44811         0.005471     -0.015713      0.045028
Co	      6.31081      6.48730      8.38898         0.122538     -0.018016     -0.094857
O	      2.09140      2.32596      2.16969        -0.012536      0.430009     -0.049872
O	      4.08954      4.31296      2.26070        -0.106521     -0.006878      0.132302
O	      4.26643      2.30737      4.25825         0.014244      0.088148     -0.001682
O	      6.23059      4.31424      4.22281        -0.142656     -0.028106     -0.068237
O	      6.49164      2.32822      6.27457        -0.026969      0.042680     -0.034596
O	      8.42121      4.36892      6.42956         0.039833      0.094086      0.178227
O	      2.18919      4.37110      4.16515         0.057285      0.087379     -0.021469
O	      4.09190      6.25669      4.27428        -0.149552     -0.115191      0.007330
O	      4.32578      4.24281      6.27182         0.019566     -0.018875     -0.022301
O	      6.35886      6.33539      6.34641        -0.069050     -0.048406      0.081749
O	      6.41237      4.31100      8.43502         0.036628      0.002944      0.064011
O	      8.43636      6.40405      8.56675         0.039226      0.031392      0.017728
O	      2.07363      6.41098      6.24337        -0.013465     -0.033797     -0.345229
O	      4.16742      8.57726      6.36467        -0.057565      0.007936     -0.013937
O	      4.23139      6.36272      8.53639        -0.048833      0.004276     -0.080230
O	      6.41411      8.61730      8.50130        -0.006845     -0.071963      0.000451
O	      6.42747      6.48988     10.58675         0.051847     -0.020271      0.010671
O	      8.45969      8.44640     10.51138        -0.004106     -0.096258     -0.025415
