# total energy = -254.48313593 eV
 
CRYSTAL
PRIMVEC
0.004661 6.435551 6.248653 
6.489891 0.007992 6.245251 
4.322564 4.284211 0.009567 
PRIMCOORD
36 1
Li	      6.52062      6.43575     12.44733         0.021388      0.018564      0.037213
Li	      6.43838     10.51527      8.35855        -0.033578     -0.095102      0.006935
Li	      4.49113      8.58735      8.35301         0.017186     -0.041846      0.020643
Li	      6.47680      8.59472     10.35839        -0.004108     -0.022032     -0.010581
Li	      4.34902      4.23759      4.19086        -0.088077      0.002004     -0.051822
Li	      4.39371      2.29809      6.17295        -0.031198      0.028357      0.013434
Li	     10.74761      8.63172     10.46025         0.003187     -0.016989      0.008314
Li	      8.56381      6.55497     10.46683        -0.076754      0.108424      0.009950
Li	      8.52428      8.58892      8.33473        -0.063984     -0.005928     -0.005202
Sc	      6.58257      6.36272      4.20944         0.059366     -0.021306      0.039442
Sc	      4.26952      6.37981      6.26590         0.005029      0.044917      0.016420
Ti	      4.37652      6.38807     10.38874        -0.042770      0.072032     -0.054893
Ti	     10.72843      6.38041      8.33600        -0.102829     -0.317146     -0.043236
Ti	      8.60231      4.34236      8.34860        -0.002603      0.047183      0.190868
Mn	      2.07910      4.40014      6.22637        -0.032853      0.005350     -0.030261
V	      6.52592      6.49653      8.36892         0.046571      0.070236     -0.094742
Cr	      2.20184      8.58298      6.26637         0.100948     -0.102508      0.053882
Cu	      6.28229      4.16315      6.07936        -0.159121     -0.107140     -0.156047
O	      2.04577      2.30373      2.07006        -0.052762      0.103487     -0.047518
O	      4.19143      4.47375      2.12078        -0.068204      0.263378     -0.019661
O	      4.30571      1.96048      4.19992        -0.028580     -0.127433     -0.004034
O	      6.69002      4.31347      4.03327         0.117168     -0.018641      0.031348
O	      6.62072      2.15009      6.43678         0.031480      0.073007      0.110199
O	      8.76780      4.20134      6.29113         0.090570     -0.042213      0.019438
O	      2.20782      4.22264      4.00683        -0.004968      0.001757     -0.207680
O	      4.42818      6.43919      4.09347        -0.004703      0.033344     -0.081926
O	      4.21787      4.34391      6.21760         0.073389     -0.013184      0.010531
O	      6.44001      6.47622      6.29262         0.015480     -0.018323      0.005662
O	      6.67440      4.33800      8.38113         0.189805      0.045596      0.008152
O	      8.74224      6.38187      8.33611         0.160694     -0.132044      0.001859
O	      2.19047      6.54635      6.26929         0.016116      0.102456     -0.002651
O	      4.23584      8.51998      6.29511        -0.127930     -0.033282     -0.021698
O	      4.44781      6.36647      8.41393        -0.019300     -0.016930      0.140761
O	      6.48419      8.44511      8.34720         0.022022      0.002053      0.032189
O	      6.37984      6.42192     10.33856        -0.075144     -0.002274      0.090058
O	      8.63919      8.71927     10.52732         0.049069      0.112176     -0.015346
