# total energy = -252.50361152 eV
 
CRYSTAL
PRIMVEC
0.040745 6.359423 6.446217 
6.418896 0.030362 6.456415 
4.305971 4.272617 -0.006319 
PRIMCOORD
36 1
Li	      4.26381      2.16040      2.22743        -0.043779      0.002909     -0.030392
Li	      2.14847      4.23359      2.35433        -0.006699      0.021229     -0.056635
Li	      2.20908      2.33638      4.37686         0.012133     -0.014590      0.053773
Li	      4.13495      4.30836      4.50329         0.079005      0.038716     -0.017053
Li	      4.18471      2.37880      6.34597        -0.010152     -0.036163      0.004779
Li	      6.23595      4.34669      6.47279         0.059614     -0.006251     -0.000479
Li	      4.50641      8.35189      4.31580        -0.021003     -0.052801      0.034071
Li	      2.40491      4.16874      6.29065        -0.051068     -0.010105      0.022298
Li	      4.39879      6.21160      6.27281         0.038384      0.051126     -0.051949
Sc	      4.36074     10.56145      6.44274        -0.180263     -0.018129      0.018042
Sc	      6.28392      2.22386      4.33437        -0.047981      0.105940      0.068998
Ti	      2.29255      8.52090      6.43424         0.262130      0.272482     -0.015828
Ti	      6.44478      4.27877      2.16666        -0.205625      0.053262      0.286953
Ti	      6.44734      6.25047      8.43255         0.086628     -0.258516     -0.620746
Mn	      4.24997      0.08676      4.32957        -0.055181      0.011426      0.051339
V	      6.43099      2.19438      8.61384        -0.049167     -0.012071     -0.000869
Cr	      2.23196      6.28953      4.30362         0.038666     -0.030396     -0.018591
Ni	      4.28614      4.26120      8.43783         0.055888     -0.050082      0.124757
O	      2.15437      1.98259      1.99939         0.068983     -0.080385     -0.071645
O	      4.52484      4.27707      2.04710         0.172613     -0.004614     -0.015521
O	      4.31022      2.15992      4.32418         0.010768     -0.007763     -0.035846
O	      6.46582      4.29004      4.06344        -0.032235     -0.051686     -0.275681
O	      6.53390      2.10459      6.43154         0.071160     -0.027664     -0.011806
O	      8.64824      4.10243      6.49037         0.010329     -0.265769     -0.004055
O	      2.15247      4.34008      4.30244        -0.011948      0.050127      0.025784
O	      4.18668      6.39512      4.21735        -0.042135     -0.043138      0.019983
O	      4.33334      4.26192      6.48125        -0.032227      0.007332     -0.126981
O	      6.49055      6.39520      6.62874        -0.029603     -0.011434      0.663328
O	      6.39878      4.37815      8.59703         0.120892      0.263668     -0.004396
O	      8.46429      6.43919      8.72680        -0.096872     -0.057552      0.056292
O	      2.16472      6.42861      6.47480         0.050088      0.011010     -0.023072
O	      4.16068      8.52232      6.44674        -0.294969      0.001322     -0.049120
O	      4.37689      6.35780      8.60454         0.050876      0.122056     -0.015657
O	      6.51221      8.60244      8.65078        -0.080414      0.036487     -0.020662
O	      6.51299      6.44892     10.73739         0.085009      0.025243     -0.057532
O	      8.53704      8.44399     10.90480         0.018151     -0.035223      0.094119
