# total energy = -253.57190028 eV
 
CRYSTAL
PRIMVEC
0.002397 6.512471 6.325536 
6.504291 0.039844 6.289064 
4.357628 4.337389 0.006923 
PRIMCOORD
36 1
Li	      6.50898      4.25967      2.24050        -0.042468      0.012394      0.020581
Li	      4.61342      8.71770      8.60461         0.039136      0.069769      0.027996
Li	      4.26843      0.16413      4.22463        -0.031232     -0.002619      0.037979
Li	      6.29605      2.41882      4.15264         0.071412      0.001492      0.037274
Li	      8.67836      4.38159      8.30594         0.027789     -0.058290      0.014198
Li	      4.56925      4.16017      4.26207        -0.037239      0.013746      0.048489
Li	      4.44982      2.06280      6.20717         0.031712     -0.042993     -0.079001
Li	      6.52390      4.37021      6.19175        -0.061290      0.014706      0.009875
Li	      6.53299      8.65481      6.39176         0.090004     -0.012170      0.018493
Sc	      8.65771      2.33876      6.27631        -0.134497      0.037915     -0.124271
Sc	      2.31580      2.08072      4.19806         0.170527     -0.049097     -0.005500
Ti	      4.32021      6.32106      2.06072         0.356841     -0.531072     -0.290316
Ti	      6.57084      4.44057     10.43042         0.023095      0.334350     -0.035808
Ti	      4.33195      6.46932      6.46782         0.011489     -0.685930     -0.004912
Mn	      2.20936      6.42010      4.22208        -0.098998      0.016909      0.018969
V	      8.58492      8.70702      8.41565         0.336657     -0.028491      0.328623
Fe	      4.35405      4.33243      0.01101        -0.085887      0.033898      0.050268
Co	      6.49935      6.56897      8.37161         0.093311      0.150764     -0.012108
O	      1.91534      2.24148      2.08986        -0.173770     -0.032403     -0.019412
O	      4.35340      4.47651      2.13369        -0.041255      0.588426      0.129075
O	      4.29500      2.22383      4.20841        -0.069603     -0.016164      0.002063
O	      6.53178      4.42905      4.21768         0.017294      0.080151     -0.018471
O	      6.56293      2.22345      6.41348         0.011588     -0.001063      0.224090
O	      8.80615      4.32482      6.29481         0.102004     -0.015396      0.052633
O	      1.94969      4.29229      4.18435        -0.241930      0.019534     -0.027833
O	      4.38540      6.63947      4.15575        -0.019254      0.015026     -0.031496
O	      4.28992      4.56789      6.38552        -0.118105      0.706741     -0.497735
O	      6.28942      6.55206      6.32161        -0.209494      0.019745     -0.010434
O	      6.35015      4.40236      8.48152         0.131580     -0.206768      0.128951
O	      8.85600      6.60855      8.35700        -0.138058      0.405134     -0.074893
O	      2.27258      6.58293      6.34040         0.015336      0.080504      0.022808
O	      4.28427      8.57231      6.19728        -0.013160     -0.128163     -0.024675
O	      4.29134      6.51371      8.34000         0.224399     -0.463837     -0.338175
O	      6.63917      8.57776      8.45518        -0.292258      0.156644     -0.054031
O	      6.53107      6.37526     10.47161         0.055302     -0.440162     -0.122516
O	      8.84269      8.68582     10.45687        -0.000979     -0.043231      0.599221
