# total energy = -250.24660528 eV
 
CRYSTAL
PRIMVEC
0.024855 6.464977 6.327232 
6.425523 0.013097 6.338921 
4.287078 4.320748 0.005705 
PRIMCOORD
36 1
Li	     10.62052      4.39981      6.33071        -0.025544      0.027906     -0.037172
Li	      8.53815      2.24786      6.26174         0.020592     -0.018224     -0.013416
Li	      6.42651      4.33792      2.21857         0.055580     -0.019740      0.014005
Li	      8.50888      4.39692      4.33073         0.016832     -0.005877     -0.075951
Li	      6.30008      2.30673      4.28215         0.034801     -0.036846     -0.012104
Li	      2.25917      2.08475      4.25196         0.017283     -0.020477      0.027932
Li	      4.43285      4.13737      4.33152         0.006142      0.005836      0.023251
Li	      4.31729      2.09931      6.16649         0.019525      0.006903      0.042252
Li	      2.18495      4.36537      6.26122        -0.024656      0.012725     -0.005065
Sc	      4.23652      2.23854      2.23027        -0.045032      0.020438     -0.102009
Sc	      4.21134      6.40641      6.29136        -0.051075      0.060235     -0.006106
Ti	      0.22714      1.97459      2.08077         0.177083     -0.177307     -0.099255
Ti	      0.05216      4.37826      4.28989         0.084354      0.080790      0.197701
Ti	      6.54724      6.51937      8.38153         0.031027      0.164246     -0.049406
Mn	      2.10429      6.47965      4.32069        -0.013561      0.031912      0.029528
V	      8.52168      8.69237      8.46197        -0.076277      0.028952      0.017612
Fe	      6.59330      4.26762      6.17926        -0.221670      0.002668      0.207814
Cu	      2.26449      4.28858      2.01299         0.125689     -0.024723      0.095401
O	      2.08187      2.07115      2.13379        -0.208856     -0.013035     -0.001562
O	      4.36428      4.42964      2.13230         0.043813      0.139938      0.014819
O	      4.27123      2.20383      4.13755         0.025704     -0.038219      0.102184
O	      6.41643      4.28771      4.32365         0.039777      0.031903     -0.183341
O	      6.42606      2.25212      6.56767         0.057747     -0.084743      0.126788
O	      8.49597      4.32690      6.33486         0.186539      0.018958      0.081156
O	      1.92479      4.30995      4.18416        -0.147349      0.000282     -0.115742
O	      4.30448      6.62267      4.10345        -0.006158      0.073380     -0.027832
O	      4.35065      4.36225      6.44287         0.019132     -0.031775     -0.109530
O	      6.42050      6.35920      6.49262        -0.003273      0.043969      0.070303
O	      6.26399      4.37729      8.50547        -0.065218      0.043641     -0.034762
O	      8.47203      6.59956      8.46070        -0.154477     -0.047983     -0.060120
O	      2.23306      6.40809      6.37081         0.007792     -0.003071      0.033176
O	      4.27626      8.58666      6.21121         0.012277     -0.022865     -0.176071
O	      4.43191      6.53724      8.38351         0.029116      0.004455      0.001404
O	      6.45959      8.47360      8.44896        -0.012734     -0.114858     -0.005819
O	      6.39170      6.33482     10.40241        -0.007057     -0.140512     -0.001052
O	      8.69924      8.64624     10.45013         0.052134      0.001120      0.030990
