# total energy = -251.19895638 eV
 
CRYSTAL
PRIMVEC
0.027675 6.453409 6.333691 
6.375275 0.022306 6.338808 
4.262419 4.317749 0.002824 
PRIMCOORD
36 1
Li	      6.43247      6.46303     12.46427         0.046200     -0.052200      0.101009
Li	      4.52369      6.52474     10.55274        -0.095784     -0.020022      0.011405
Li	      6.32788      8.32722     10.60043        -0.050913      0.030158      0.012767
Li	      4.24156      6.47761      2.18663         0.038470      0.029975      0.068654
Li	      4.22047      4.32328      4.22681         0.001719      0.030801     -0.013927
Li	      4.28884      2.15011      6.26002        -0.001305     -0.023501     -0.060043
Li	      6.44925      4.56349     10.55003        -0.006750     -0.015357      0.027582
Li	      8.28879      6.44696     10.58474         0.020523      0.002005      0.026793
Li	      6.35996      6.48353      8.69766        -0.044179     -0.017309     -0.073062
Sc	      8.58089      8.61188     12.51436        -0.037360     -0.011601     -0.014850
Sc	      6.33114      4.28942      2.19449         0.007091      0.016129      0.007556
Ti	      2.10483      2.28879      4.30189        -0.080474      0.053824      0.019924
Ti	      6.36523      4.22867      6.25400         0.149140     -0.303799     -0.147807
Ti	      8.59232      8.46442      8.55994         0.036436     -0.250484      0.218332
Mn	      8.53141      4.50129      8.48299        -0.002334      0.064450     -0.055865
V	      4.31362      8.58658      8.49598        -0.015104      0.008249      0.044135
Fe	      4.27976      6.45996      6.26582        -0.089932      0.017167      0.064991
Ni	      2.14393      4.36209      6.32184         0.033648     -0.009877      0.008541
O	      2.16418      2.10976      2.15603         0.017611     -0.033930      0.004897
O	      4.28089      4.16871      2.13243         0.033950     -0.055404      0.014474
O	      4.12070      2.13291      4.12867        -0.036445      0.005499     -0.087465
O	      6.33264      4.45091      4.32323        -0.007602      0.053196      0.106420
O	      6.43042      2.35090      6.27997        -0.036890      0.282545     -0.011591
O	      8.31778      4.25942      6.37462        -0.141142      0.019054     -0.058426
O	      2.15532      4.20561      4.27937         0.033910     -0.124846     -0.112392
O	      4.48176      6.45222      4.23226         0.146689      0.036034     -0.177825
O	      4.32252      4.31181      6.44805         0.105016     -0.109446      0.041415
O	      6.45798      6.42399      6.20357         0.120812     -0.023030     -0.096063
O	      6.24642      4.37197      8.29671        -0.105988     -0.034500     -0.003660
O	      8.56862      6.63276      8.46167         0.025795      0.268897      0.029492
O	      2.14112      6.49794      6.38938        -0.110078      0.052172      0.019808
O	      4.30370      8.60127      6.44155        -0.055905      0.134955      0.091314
O	      4.22401      6.48598      8.40264         0.018463      0.031361      0.087374
O	      6.49775      8.65481      8.39729         0.051224      0.002759      0.118962
O	      6.39999      6.46075     10.58721         0.006457     -0.027944     -0.007875
O	      8.56704      8.63239     10.44729         0.025031     -0.025981     -0.204992
