# total energy = -91.66850427 eV
 
CRYSTAL
PRIMVEC
2.064684 3.971630 1.993399 
4.035114 -1.942469 -1.986403 
0.025842 3.967058 -4.003491 
PRIMCOORD
16 1
Li	      1.95642      1.94824     -0.00163        -0.079473     -0.266388      0.418021
Li	      3.90903      1.95286     -1.94567         0.532939     -0.127081     -0.004104
Li	      0.02334      1.94667     -1.95712        -0.438455     -0.336300      0.318387
Li	      4.02859      3.86722     -3.88669        -0.026079      0.242712     -0.083328
Mn	      5.92892      5.80105     -3.87636         2.056134      1.601987     -1.631023
Mn	      1.97332      0.05150     -1.94410        -0.923432     -2.365791      0.460114
Ni	      1.96758      3.86927     -1.90169        -0.985083      0.433967     -0.080544
Ni	      1.98422      1.92163     -3.85194        -0.254843     -0.668609     -1.567343
O	      3.86479      3.87262     -1.80387         1.498079      0.476789     -0.567343
O	      3.98299      1.97293     -4.00760         0.161245     -0.568384     -0.092386
O	      4.09786      2.03526      0.01772        -0.543824     -0.572986      0.583620
O	      3.77157     -0.05823     -1.93522         1.463540     -0.941727      0.083227
O	      2.12812      3.84383      0.06322        -0.667892      0.414902      1.572093
O	      2.01078      1.85154     -1.93414        -0.531045      0.733809      1.045492
O	      2.02758      5.86609     -1.96988        -0.739260      0.977121      0.265329
O	      1.86365      3.87265     -3.93416        -0.522550      0.965979     -0.720214
