# total energy = -253.95055819 eV
 
CRYSTAL
PRIMVEC
-0.034049 6.356513 6.345481 
6.385129 -0.012846 6.324086 
4.234062 4.200844 0.014132 
PRIMCOORD
36 1
Li	      4.26568      0.06587      4.21807         0.094534     -0.081202      0.007098
Li	      6.28331      2.07706      4.24326         0.013285     -0.072198      0.009791
Li	      4.18243      6.31274      2.26560        -0.106667      0.039274     -0.058631
Li	      4.15994      4.25192      4.27835        -0.022673     -0.008217      0.011020
Li	      4.19127      2.16204      6.24409         0.043051     -0.056058      0.020272
Li	      0.10753      4.19978      4.23012        -0.083261      0.082647      0.001035
Li	      2.15891      6.19376      4.19856        -0.018248      0.101206      0.028164
Li	      2.16869      4.18626      6.24764         0.033584      0.021663      0.043527
Li	      6.42701      6.29278      8.51121         0.034914     -0.030542      0.087704
Sc	      4.31587      2.07345      2.20957         0.311466     -0.095641     -0.026757
Sc	      8.47530      8.30465      8.53366         0.022523      0.280542      0.275162
Ti	      6.33069      6.38592     12.53072        -0.042131      0.262738     -0.851018
Ti	      8.43511      8.47126     12.51925        -0.349947      0.034429     -0.866537
Ti	      6.32631      4.21134      6.27842         0.181139     -0.429564      0.268588
Mn	      4.20432      6.32648      6.24747        -0.077717      0.023556      0.067816
V	      6.32738      4.21696      2.22627         0.101263     -0.453194     -0.240688
Fe	      8.45189      4.35207      8.52374         0.097841      0.162424     -0.315399
Fe	      2.09659      2.24359      4.23758         0.058832     -0.078954      0.223602
O	      2.15660      2.04329      2.07138        -0.058204      0.653390      0.049799
O	      4.33207      4.17100      2.00847        -0.412313      0.055156      0.060689
O	      4.13065      2.09527      4.17966        -0.047155      0.066317      0.040062
O	      6.36119      4.20682      4.26618        -0.035730      0.194233      0.336704
O	      6.44169      2.09015      6.29389        -0.104031      0.135591      0.063889
O	      8.50238      4.12358      6.33258        -0.109600      0.219741      0.246656
O	      2.12621      4.18455      4.27885         0.067945     -0.009037      0.047568
O	      4.36909      6.33308      4.20821        -0.060472     -0.008386     -0.079970
O	      4.39138      4.16800      6.38799         0.039186      0.000360     -0.127987
O	      6.38812      6.15777      6.27998         0.007055      0.128003     -0.108017
O	      6.33145      4.21242      8.25639         0.040208     -0.018887     -0.175778
O	      8.44981      6.36546      8.52109        -0.000682     -0.613410     -0.015179
O	      1.98194      6.45370      6.44122         0.119223     -0.079743     -0.025246
O	      4.08071      8.56676      6.38539         0.151473     -0.218293      0.082865
O	      4.09531      6.32599      8.44286         0.179340      0.084754     -0.012125
O	      6.35708      8.52865      8.46237        -0.137023     -0.282143     -0.055873
O	      6.31974      6.35827     10.71392         0.045858     -0.030045      0.473169
O	      8.49182      8.43072     10.66589         0.023136      0.019488      0.514025
