# total energy = -247.20770596 eV
 
CRYSTAL
PRIMVEC
0.065167 6.435966 6.280352 
6.469019 0.057768 6.287279 
4.339484 4.322164 0.012118 
PRIMCOORD
36 1
Li	      8.61680      8.56533     12.55148        -0.061863     -0.039849      0.011747
Li	      6.42741      2.24901      8.30907        -0.075797      0.024784     -0.041774
Li	      4.39684      4.34916      4.43191         0.090720     -0.038895     -0.140541
Li	      4.41038      2.44583      6.29359         0.029697     -0.030460      0.000502
Li	      6.22202      4.26111      6.25581        -0.004153     -0.044969     -0.021325
Li	      2.24165      6.46165      4.27082        -0.017855      0.024833     -0.000539
Li	      2.44977      4.38800      6.18600         0.003649      0.073295     -0.092620
Li	      4.30059      6.20916      6.25191        -0.055399     -0.015666      0.014835
Li	      4.41592      4.25430      8.17876         0.054640     -0.056895      0.096528
Sc	      8.60698      4.35181      4.31671        -0.049125     -0.005191      0.058808
Sc	      8.66113      4.39856      8.37244         0.026291      0.030859      0.011201
Ti	      4.38914      8.61822      8.32788        -0.067653     -0.014822      0.054361
Ti	      4.34820      8.46570      4.29147        -0.031151     -0.321426     -0.017293
Ti	      6.60594      6.51796      8.19288         0.172590      0.006634     -0.334609
Mn	      2.25338      6.43567      8.32444         0.000240     -0.007022      0.020293
V	      6.60923      6.56548     12.53707        -0.016032      0.055042      0.028876
Ni	      6.49144      2.21469      4.26169         0.063526      0.023032     -0.012380
Ni	      6.49390      6.48403      4.31713         0.027632     -0.051973      0.017879
O	      2.35784      2.20312      2.15078         0.148658      0.035033     -0.075869
O	      4.31465      4.19990      2.08305        -0.051218     -0.100323      0.077023
O	      4.31185      2.15059      4.04067         0.021596      0.019177     -0.063851
O	      6.55787      4.33736      4.17517        -0.000829      0.007499      0.096577
O	      6.49254      2.09106      6.26236        -0.005833      0.043642      0.175915
O	      8.78932      4.34239      6.32044         0.059791     -0.012416      0.023634
O	      1.98766      4.23560      4.18190        -0.119111      0.113627      0.018166
O	      4.39270      6.62846      4.16065        -0.101373      0.312261      0.062427
O	      4.33764      4.33914      6.30109         0.004337     -0.023270     -0.020440
O	      6.52752      6.47178      6.38527         0.002182      0.011538      0.387637
O	      6.54488      4.51397      8.50955         0.018113      0.032144     -0.004138
O	      8.50131      6.46679      8.40634        -0.192859      0.012389     -0.016959
O	      2.08921      6.44012      6.28051         0.020059     -0.026350     -0.065844
O	      4.36741      8.69657      6.29598        -0.005759      0.000395      0.007177
O	      4.49408      6.64087      8.37938         0.073011      0.157625     -0.034734
O	      6.41346      8.51611      8.46984        -0.119871     -0.116321     -0.170689
O	      6.48543      6.47774     10.44017        -0.002807     -0.078046     -0.070849
O	      8.84494      8.70943     10.47078         0.161959      0.000085      0.020867
