# total energy = -255.87746788 eV
 
CRYSTAL
PRIMVEC
-0.004493 6.483131 6.433305 
6.210814 0.021896 6.406974 
4.151506 4.314985 0.003978 
PRIMCOORD
36 1
Li	      4.18536     10.72073      6.53774        -0.015278     -0.042576     -0.037968
Li	      6.08032      4.21768      2.12695         0.103183     -0.025213     -0.011883
Li	      4.26783      8.79086      8.53514         0.013540     -0.012119      0.034463
Li	      6.19991      8.62110     10.63210        -0.030869     -0.055967     -0.018532
Li	      0.01996      2.12433      2.12160        -0.028805     -0.010978      0.029545
Li	      6.20893      4.28188      6.46381         0.006520      0.008178     -0.024840
Li	     10.32099      8.68396     10.70881         0.009541     -0.009289      0.020078
Li	      6.14176      8.64071      6.53682        -0.011028     -0.023062      0.030821
Li	      6.18547      6.54353      8.63469        -0.022235      0.042088      0.042115
Sc	      8.24401      4.37191      8.50847        -0.119167      0.028470     -0.128378
Sc	      8.17890      6.49036     10.73203         0.039276      0.065527      0.020174
Ti	      2.04329      2.11591      0.11353        -0.096300     -0.066131      0.039745
Ti	      6.20301      6.42049      4.33945        -0.059843      0.000302      0.234076
Ti	      4.11549      4.37478      8.47566        -0.164592      0.044597     -0.018701
Mn	      4.28842      2.21102      6.40067        -0.026613     -0.003884     -0.131592
Mn	      4.18203      6.56884      6.53557         0.076786     -0.042539      0.006317
V	      4.20139      6.45214     10.69830         0.105397      0.098870     -0.042302
Co	      4.18674      4.30364      4.18020         0.115506     -0.033290      0.102091
O	      2.02959      2.24013      2.06260         0.023263      0.006645      0.007796
O	      4.08732      4.31729      2.18323        -0.060036      0.063857      0.142634
O	      4.05928      2.11660      4.21548        -0.150927     -0.095813     -0.065738
O	      6.29977      4.49896      4.24027        -0.375830     -0.005804      0.008451
O	      6.36020      2.21783      6.36941         0.197766     -0.007512     -0.004565
O	      8.27770      4.24392      6.35198         0.015289     -0.062507      0.132070
O	      2.05733      4.27673      4.21370         0.245845     -0.061788      0.002730
O	      4.23720      6.42620      4.28515         0.110569      0.237492     -0.059778
O	      4.15862      4.36337      6.53913        -0.017545      0.014447     -0.003507
O	      6.27285      6.54137      6.19880        -0.005918     -0.027656     -0.271190
O	      6.11838      4.35250      8.53671         0.008430     -0.031214      0.001095
O	      8.27632      6.53940      8.61292         0.018163      0.008777      0.076308
O	      2.03796      6.63983      6.38816        -0.049114      0.039642      0.067139
O	      3.98606      8.64593      6.47596        -0.075291      0.094107     -0.023179
O	      4.15891      6.31911      8.70180        -0.031351     -0.081906     -0.107727
O	      6.38374      8.63068      8.55041         0.169938      0.031327     -0.003798
O	      6.16486      6.47605     10.71733         0.084012     -0.026466     -0.014155
O	      8.29222      8.62105     10.70735        -0.002280     -0.058612     -0.029815
