# total energy = -253.81469865 eV
 
CRYSTAL
PRIMVEC
0.003038 6.401532 6.452551 
6.318232 0.046038 6.409126 
4.267674 4.294519 -0.024736 
PRIMCOORD
36 1
Li	      6.32445      6.41769     12.77976         0.018148      0.061579     -0.054482
Li	      4.41412      8.58159      8.50898        -0.101363      0.081258      0.023482
Li	      6.34255      8.58114     10.56361        -0.019246     -0.000769      0.009080
Li	      8.47774      4.36414      8.49971         0.031705     -0.004040      0.034213
Li	      6.40004      6.44119      4.30326        -0.009139     -0.015371      0.080257
Li	      8.42058      6.49289      6.49993        -0.015824     -0.049487      0.021145
Li	      6.36865      8.51628      6.61434        -0.032007      0.014584     -0.102383
Li	      8.28978      8.59076      8.48341         0.063835     -0.035751     -0.014199
Li	      6.39389      6.64838      8.52084         0.017557     -0.007295     -0.025461
Sc	      4.25497      6.38188      2.11083         0.000021     -0.059965      0.061822
Sc	      8.32673      6.51898     10.61175         0.082405     -0.045649      0.021236
Ti	      2.17218      2.15377      0.04819        -0.171313     -0.175685      0.057275
Ti	      4.21038      4.07857      4.28735        -0.064344     -0.381904     -0.280286
Ti	      6.36371      4.41898      6.48647         0.179131      0.386285      0.037040
Mn	      4.20521      6.49581     10.58304        -0.096413      0.060302      0.025985
Mn	      6.37676      4.34984     10.63544         0.033710     -0.016725     -0.086027
V	      4.24407      6.44011      6.48906        -0.148392      0.063800      0.249217
Cu	      6.39138     10.57154      8.54961         0.025162      0.145857      0.059541
O	      2.10870      2.02408      1.97505         0.084691      0.139851     -0.109789
O	      4.34617      4.29060      2.34100        -0.285862      0.017699      0.187715
O	      4.18804      2.25396      4.34185         0.013021      0.372171      0.021746
O	      6.23345      4.31221      4.51405        -0.050816     -0.028898      0.181954
O	      6.45820      2.26095      6.48882         0.011865      0.000047      0.012067
O	      8.34925      4.20598      6.41009         0.029652     -0.044393      0.012654
O	      2.28798      4.32158      4.31564         0.014188     -0.015446     -0.016146
O	      4.25025      6.39919      4.31711         0.053244     -0.061390      0.020996
O	      4.33304      4.36055      6.32585        -0.015040      0.253953      0.065857
O	      6.30418      6.32659      6.47337         0.326375     -0.363192      0.042427
O	      6.36827      4.23224      8.42640        -0.035336     -0.017263      0.019571
O	      8.53379      6.45222      8.57048         0.045211      0.030483      0.011765
O	      2.17199      6.57127      6.30090        -0.165344      0.185030     -0.046598
O	      4.14371      8.51647      6.42631         0.020303     -0.337788     -0.005198
O	      4.13266      6.37723      8.44375         0.079305      0.076490     -0.472120
O	      6.36244      8.65356      8.54787         0.015093     -0.267921      0.002125
O	      6.32746      6.44996     10.69981         0.022384     -0.004373     -0.038303
O	      8.45003      8.59631     10.84813         0.043432      0.043918     -0.008177
