# total energy = -257.40173874 eV
 
CRYSTAL
PRIMVEC
0.029160 6.393781 6.497210 
6.394828 0.020350 6.506616 
4.257517 4.262580 0.018978 
PRIMCOORD
36 1
Li	      8.51150      2.22475      6.55203        -0.041991     -0.040693      0.034397
Li	      8.53195      4.25660      4.46482        -0.054302      0.010550      0.000133
Li	      8.47795      4.30518      8.58632         0.018194     -0.032945      0.020493
Li	      4.29262      4.25585      4.38121         0.053372     -0.025029      0.009386
Li	      8.45012      6.29739      6.59914         0.019831      0.074323     -0.016929
Li	      6.55463      4.38426      6.55701         0.042001     -0.029619     -0.037486
Li	      2.19282      6.37019      4.35581        -0.030592     -0.021690      0.056492
Li	      4.31233      6.35173      6.52972         0.011446     -0.015730      0.029719
Li	      6.45856      6.37738      8.52443        -0.012333      0.044328     -0.035807
Sc	      6.37871      2.17349      4.43747        -0.063411      0.204267     -0.145299
Sc	      6.44591      6.34757      4.44460         0.092786     -0.094517     -0.015167
Ti	     10.61300      6.35807      8.63248         0.070613     -0.320045     -0.019655
Ti	     10.63229      8.60286     10.89810         0.066052      0.157694      0.188504
Ti	      4.33048      4.36181      8.55015        -0.174185      0.378921     -0.506764
Mn	      4.24287      8.44663      8.62933         0.014011     -0.032995      0.116179
Mn	      2.21517      4.24086      6.46887         0.024931      0.096131      0.010323
V	     10.53366      4.29218      6.51630         0.449902      0.036330      0.105939
Fe	      2.17510      6.40079      8.61677         0.010378      0.036042     -0.007954
O	      2.00560      2.15457      2.20748        -0.308442      0.170349      0.068768
O	      4.19361      4.38802      2.12030        -0.128918      0.364046      0.059494
O	      4.29333      2.18789      4.27265         0.007864     -0.046296      0.015155
O	      6.38077      4.24932      4.26047         0.019492     -0.064107      0.122106
O	      6.43306      2.12837      6.58806        -0.066905     -0.074529      0.157918
O	      8.63886      4.28894      6.53496        -0.403726      0.014134      0.027902
O	      1.93512      4.23178      4.31151        -0.317309      0.026885      0.004320
O	      4.28374      6.50467      4.20421        -0.013095      0.150335     -0.167407
O	      4.32732      4.30568      6.67866         0.001236      0.028418      0.579664
O	      6.41909      6.40075      6.45456         0.022669     -0.002977     -0.128754
O	      6.32927      4.23166      8.79218        -0.124811     -0.092278      0.107292
O	      8.71475      6.55571      8.67239         0.255975      0.051047      0.033248
O	      1.98748      6.35568      6.59878        -0.015603     -0.191412     -0.097714
O	      4.18888      8.54066      6.38954         0.097251      0.040944     -0.352624
O	      4.33699      6.29327      8.65333         0.108570     -0.432007     -0.109317
O	      6.55931      8.46117      8.78476         0.185498     -0.090847      0.099973
O	      6.42660      6.33945     10.93198        -0.042234     -0.205869     -0.063714
O	      8.61044      8.55639     10.75456         0.225786     -0.071164     -0.142813
