# total energy = -252.90759582 eV
 
CRYSTAL
PRIMVEC
0.029370 6.361853 6.376324 
6.555073 0.023040 6.380582 
4.376994 4.251003 0.008361 
PRIMCOORD
36 1
Li	      2.46487      8.38658      6.38374         0.022486      0.081772      0.027343
Li	      4.54440      8.33164      8.35585        -0.007376      0.109296      0.002819
Li	      4.49615      6.32367     10.45070         0.040544     -0.022928      0.066030
Li	      6.57406      8.45466     10.46943        -0.012817     -0.027408      0.064385
Li	      2.25564      2.11139      4.26557         0.041837     -0.025163      0.021443
Li	      6.40441      8.45068      6.53741         0.000914      0.001533     -0.010198
Li	      4.38534      6.57493      6.49524         0.035820     -0.119198      0.006179
Li	      8.60836      8.63612      8.59390        -0.024576     -0.009600     -0.020487
Li	      6.43515      6.55986      8.55273         0.038723     -0.031863     -0.006940
Sc	      2.19025      4.12144      2.15569        -0.010556     -0.040646     -0.022996
Sc	      6.55453      4.27030      6.37691         0.030134     -0.028159      0.021290
Ti	      4.40397      4.18753      4.25904         0.062422     -0.104106     -0.044680
Ti	      8.64613      6.44742      6.44643        -0.148446     -0.006747      0.080770
Ti	      2.18452      6.48491      4.43907        -0.094459      0.240687      0.084689
Mn	      4.38133     10.53557      6.33975        -0.037738      0.084640     -0.018424
Mn	      0.02570      2.12865      2.13895        -0.013721      0.012404     -0.023090
V	      2.35567      6.32211      8.50479        -0.007364      0.065615     -0.014041
Ni	      4.38969      8.48174      4.28604         0.088406     -0.051281     -0.062409
O	      2.15814      2.07737      2.11509         0.022057      0.050060      0.000850
O	      4.38401      4.20574      2.26771        -0.014435     -0.029088      0.110403
O	      4.32590      2.29806      4.41242        -0.021656      0.157663      0.086735
O	      6.35820      4.31282      4.26643        -0.148386     -0.017337      0.069276
O	      6.33509      2.16258      6.35499        -0.084003      0.043510     -0.049896
O	      8.67645      4.39228      6.39294        -0.037049      0.063258     -0.031477
O	      2.34496      4.34082      4.20303         0.070057     -0.002047     -0.011037
O	      4.21796      6.26206      4.29522        -0.066048     -0.110888      0.067328
O	      4.44765      4.16654      6.27832        -0.032962     -0.091078     -0.090802
O	      6.75097      6.35307      6.39204         0.150765      0.007321     -0.011979
O	      6.68001      4.26533      8.50407         0.025603      0.008640     -0.114624
O	      8.77580      6.34120      8.40226        -0.003751     -0.011887     -0.070441
O	      2.20929      6.39491      6.31447         0.052095      0.034346     -0.270607
O	      4.41882      8.49014      6.28296         0.022204     -0.037823      0.130011
O	      4.27860      6.39102      8.53358         0.038660     -0.031818     -0.026462
O	      6.56671      8.65085      8.51065        -0.027759     -0.103978      0.012588
O	      6.82507      6.32799     10.57449         0.153291      0.119904     -0.024312
O	      8.86348      8.34606     10.61429        -0.102917     -0.177606      0.072762
