# total energy = -258.59629251 eV
 
CRYSTAL
PRIMVEC
0.037777 6.438344 6.454456 
6.445409 -0.019529 6.511784 
4.292043 4.325509 -0.008128 
PRIMCOORD
36 1
Li	      8.56338      4.34731      4.35415        -0.002688     -0.000157     -0.021368
Li	      2.15421      4.30011      2.22186         0.013934     -0.040778      0.023324
Li	      6.46924      6.54587      4.58176        -0.022477      0.009816     -0.034553
Li	      4.19132      4.30850      4.55034        -0.039486      0.027651      0.015793
Li	      8.39195      6.55984      6.39792         0.078574      0.014184     -0.013235
Li	      6.41891      4.50028      6.36090         0.030118      0.012465     -0.082926
Li	      2.19128      6.33351      4.35187         0.012184     -0.032761      0.082294
Li	      2.32537      4.07689      6.25167        -0.040372     -0.008741     -0.001105
Li	      4.47642      6.33321      6.41029        -0.008112      0.022417     -0.007419
Sc	      6.47347      6.41751     12.90912        -0.011799     -0.079007      0.040286
Sc	      4.33767      4.32325      8.45552        -0.051645      0.049890     -0.013894
Ti	      8.63601      8.62379     12.86038         0.123786      0.058455     -0.078370
Ti	      6.30981      2.30633      4.38876        -0.256570      0.489394     -0.164358
Ti	      4.25979      6.45803      2.33360        -0.114319     -0.048216      0.467448
Mn	      2.21844      6.45895      8.62366         0.010531     -0.040132      0.003700
Mn	      4.23345      2.12616      2.21831        -0.007542      0.022536     -0.001830
Mn	      6.52931      6.39715      8.49720         0.049895     -0.021265      0.029208
V	      0.13902      4.30537      4.31151        -0.052060     -0.090886      0.050040
O	      2.00314      2.18204      1.98289        -0.106500      0.047436     -0.110375
O	      4.29461      4.47904      2.09491        -0.046019      0.148296     -0.060493
O	      4.46339      2.13457      4.34850         0.270504      0.049993      0.082749
O	      6.44902      4.12874      4.35089        -0.058819     -0.448736      0.011236
O	      6.55714      2.09313      6.37497         0.004954      0.021185     -0.081756
O	      8.65190      4.09019      6.49549        -0.009097     -0.173084     -0.089723
O	      2.02406      4.29156      4.30518         0.126704     -0.054058      0.009720
O	      4.31867      6.54435      4.18453        -0.030761     -0.032620     -0.446550
O	      4.27424      4.31884      6.52920         0.024598     -0.026025      0.034965
O	      6.48190      6.43705      6.47481        -0.021859      0.024762     -0.000713
O	      6.43667      4.14172      8.73253         0.061292     -0.128044      0.004516
O	      8.81701      6.50258      8.61627         0.218424     -0.009445     -0.001894
O	      2.10970      6.64478      6.46538        -0.031741      0.122776     -0.065301
O	      4.19951      8.65061      6.44058        -0.100474      0.036913     -0.030427
O	      4.33185      6.40975      8.68063         0.007441     -0.053479      0.004621
O	      6.53114      8.56234      8.86306         0.016601      0.024222      0.173667
O	      6.48453      6.35529     10.82101        -0.007056      0.090613      0.096713
O	      8.61515      8.56594     10.89865        -0.030143      0.014431      0.176010
