# total energy = -243.76495959 eV
 
CRYSTAL
PRIMVEC
0.027961 6.373010 6.227261 
6.439275 0.046168 6.209174 
4.327648 4.270571 -0.002925 
PRIMCOORD
36 1
Li	      6.50914      0.16919      6.19297         0.119433      0.034703     -0.031327
Li	      8.48139      2.16407      6.23480        -0.014368     -0.068908      0.022628
Li	      6.39851      4.28730      2.10916         0.024522     -0.005138     -0.096265
Li	      6.49638      2.23943      4.15957        -0.000146     -0.089317     -0.024677
Li	      0.10605      2.06619      2.02858         0.050135      0.038995      0.020235
Li	      6.47946      6.36209      4.10894        -0.035093      0.037480      0.055610
Li	      4.40115      4.34674      4.08668         0.018089      0.152917     -0.026085
Li	      2.13419      4.29808      6.20376        -0.082915     -0.014802     -0.035079
Li	      8.62129      8.53429      8.33765         0.049986     -0.032019      0.047520
Sc	      4.41375      2.19721      6.17932        -0.186832      0.089252      0.183444
Sc	      6.49445      6.49523      8.30857         0.024100     -0.124786     -0.070902
Ti	      4.24962      2.31419      2.07111        -0.115299      0.159141     -0.128724
Ti	      4.39504      8.48563      4.16596         0.248837     -0.218194     -0.141319
Ti	      4.18110      6.29754      6.20524        -0.169726      0.249170     -0.135438
V	      8.48840      4.23523      4.16478         0.094054     -0.161812     -0.610823
Co	      6.47809      4.23480      6.20520        -0.029390      0.400302     -0.005555
Cu	      8.63307      6.46502     10.33468         0.044874      0.044273      0.064856
Ni	      2.19703      4.22397      2.07962        -0.075392      0.089705      0.031440
O	      2.34534      2.16878      2.05416         0.271116     -0.066525      0.013079
O	      4.30054      4.17252      2.07669         0.084730     -0.323522     -0.020072
O	      4.29965      2.05588      4.06456        -0.037574     -0.196690     -0.024612
O	      6.60751      4.25794      4.12912         0.290385     -0.028348      0.268216
O	      6.40885      2.19038      6.22356        -0.009729      0.107659     -0.070678
O	      8.60697      4.36313      6.17317        -0.707698     -0.152564      0.265647
O	      1.99407      4.35341      4.13233        -0.287289     -0.194391      0.106599
O	      4.45394      6.49831      4.26382         0.137914      0.112388      0.216234
O	      4.31168      4.36445      6.19643         0.743647     -0.172217     -0.040296
O	      6.44772      6.35769      6.25901         0.053658     -0.203103     -0.105733
O	      6.50040      4.29172      8.41132        -0.026950     -0.012802      0.106989
O	      8.57227      6.42244      8.29186        -0.014942      0.016724     -0.356149
O	      2.33893      6.37799      6.15884         0.291386     -0.065565      0.251723
O	      4.37044      8.37623      6.22812        -0.023299     -0.080377      0.074538
O	      4.32939      6.43454      8.23594        -0.027719      0.048435     -0.099120
O	      6.29208      8.49868      8.30617        -0.158285      0.068756      0.026864
O	      6.26593      6.25685     10.39082        -0.454081      0.007295      0.159016
O	      8.78404      8.57459     10.34741        -0.090139      0.553888      0.108217
