# total energy = -242.98391495 eV
 
CRYSTAL
PRIMVEC
0.015094 6.163489 6.289641 
6.564468 0.028626 6.275839 
4.389765 4.111352 0.008165 
PRIMCOORD
36 1
Li	     10.69494      4.12870      6.32563         0.026180      0.013432      0.035336
Li	      6.49032      4.15332      2.11952        -0.070045      0.048302     -0.026903
Li	      8.84763     10.24096     10.57869        -0.065698     -0.012769     -0.026284
Li	      8.75848      4.12956      8.21469         0.042554     -0.026984      0.035049
Li	      8.76465      6.03520      6.35089        -0.034730      0.026544     -0.019997
Li	      6.80605      4.05060      6.28872        -0.004862      0.027632     -0.022272
Li	      8.66875      6.24120     10.35575         0.045942     -0.007416      0.060538
Li	      4.47332      6.19188      6.32227        -0.032437     -0.020618     -0.017664
Li	      4.42804      4.18356      8.32982        -0.032449     -0.037293     -0.025623
Sc	      4.33018      8.17897      8.28560        -0.195924      0.145478      0.092416
Sc	      4.39911      4.18187      4.23935         0.035293     -0.007891     -0.053989
Ti	      6.66861      2.04756      4.34194         0.405102      0.295360      0.284908
Ti	      2.28918      4.37538      6.30726         0.183431      0.568550     -0.032578
Ti	      6.66331      6.06338      8.31209         0.039926     -0.179656     -0.118901
V	      6.60704      6.15665      4.26910         0.104186     -0.129388     -0.136201
Co	      6.46756      2.11269      8.28769        -0.011633     -0.033189     -0.085223
Cu	      2.20122      8.19938      6.29102         0.021473     -0.179102      0.067656
Cu	      6.55633      4.20785     10.50143        -0.140431     -0.012718     -0.060530
O	      2.22933      2.01679      2.21124         0.104795      0.052200     -0.016526
O	      4.34610      4.20176      2.13404        -0.013115      0.124198      0.005839
O	      4.31881      2.07691      4.12892         0.165132     -0.100034      0.041215
O	      6.48847      4.04147      4.20565         0.110118     -0.244254      0.032457
O	      6.40339      2.03062      6.18681        -0.180142      0.028979     -0.347214
O	      8.75036      3.94167      6.28008         0.019030      0.236899     -0.066318
O	      2.32263      4.11042      4.35943        -0.106464      0.152623      0.095647
O	      4.61761      6.22904      4.18053        -0.066159      0.091914      0.084314
O	      4.17660      4.18181      6.28473        -0.193370     -0.026845      0.119267
O	      6.63628      6.19586      6.30291         0.007310     -0.005461      0.275121
O	      6.55439      4.09157      8.42745        -0.015937      0.052539     -0.123099
O	      8.59484      6.16858      8.36252        -0.235536     -0.064795      0.027217
O	      2.27694      6.21939      6.33214         0.034953     -0.570204     -0.034377
O	      4.65081      8.28144      6.26279         0.177974      0.019710     -0.035327
O	      4.67564      6.19626      8.32992         0.164957     -0.156308      0.051442
O	      6.51975      8.20110      8.35174         0.070142     -0.070621      0.006897
O	      6.56768      6.29398     10.32088        -0.039197     -0.044018     -0.011123
O	      8.52734      8.21797     10.49812        -0.320367      0.045202     -0.055167
