# total energy = -243.93799199 eV
 
CRYSTAL
PRIMVEC
-0.000808 6.366191 6.395586 
6.343574 0.011510 6.383395 
4.222279 4.229187 0.014522 
PRIMCOORD
36 1
Li	      2.16861      2.07383      0.17641        -0.087672      0.040742      0.046017
Li	      2.07128      0.13361      2.09230        -0.070122     -0.005169     -0.017558
Li	      4.09764      2.13666      2.03621         0.022351      0.008451     -0.037297
Li	      8.45465      4.22538      4.29979        -0.055214      0.015723      0.088398
Li	      4.27753      6.27650      2.19640         0.045930     -0.004292     -0.022078
Li	      4.10206      4.37288      4.21417         0.057477     -0.043011      0.013969
Li	      4.26645      8.42668      4.33373        -0.004915      0.012716      0.009436
Li	      2.24958      6.19909      4.30845         0.001082     -0.019175      0.002547
Li	      2.11585      4.29612      6.26949        -0.031128     -0.000063     -0.017969
Sc	      6.34137      2.20488      4.24259        -0.089004      0.061330     -0.031385
Sc	      2.01128      2.17731      4.16440         0.013637     -0.024799     -0.038698
Ti	      4.36591     10.42958      6.48086         0.180367     -0.184250      0.291724
Ti	      4.21678      2.13312      6.36668         0.087304     -0.084708     -0.383819
Ti	      4.27823      4.29891      8.59880         0.044756      0.093109      0.108548
V	      6.34327      6.35879      8.60714        -0.200057      0.031471      0.072681
Co	      6.38052      4.20650      6.36804        -0.177279      0.057388      0.268842
Ni	      2.15940      4.18453      2.18489        -0.105023     -0.019943     -0.005707
Ni	      4.09694      6.43791      6.35245         0.051761      0.024760     -0.023524
O	      2.09522      2.14148      2.15967         0.021596     -0.161543      0.057384
O	      4.21664      4.20783      1.95248         0.104832     -0.028674     -0.310411
O	      4.21889      2.14096      4.45201         0.003226      0.010424      0.268886
O	      6.37374      4.24373      4.33441         0.044011      0.002638      0.359102
O	      6.20852      2.02790      6.35346        -0.067531     -0.117498      0.026492
O	      8.49404      4.36717      6.46859        -0.214435      0.072614     -0.140674
O	      2.12592      4.21323      4.19625        -0.027672     -0.014182      0.167483
O	      4.23282      6.35082      4.38258        -0.018155      0.006682     -0.162914
O	      4.26310      4.12888      6.51461         0.281758      0.030749     -0.024927
O	      6.43672      6.36560      6.48893         0.153935      0.122750      0.032813
O	      6.26568      4.29682      8.46780        -0.078806     -0.293810     -0.432105
O	      8.40429      6.43135      8.43821        -0.236804      0.063004     -0.017700
O	      1.99780      6.37030      6.38720        -0.265329     -0.015958     -0.020872
O	      4.20307      8.56971      6.39303        -0.012933      0.269500      0.005628
O	      4.29885      6.25353      8.39356         0.251347     -0.126295      0.131283
O	      6.48504      8.40952      8.56796         0.230240      0.252134      0.053611
O	      6.29095      6.42533     10.62356         0.074766     -0.008082     -0.063549
O	      8.42191      8.52601     10.46730         0.071701     -0.024735     -0.253659
