# total energy = -92.46724586 eV
 
CRYSTAL
PRIMVEC
2.085969 4.012574 2.013949 
4.076714 -1.962494 -2.006881 
0.026108 4.007955 -4.044764 
PRIMCOORD
16 1
Li	      1.99697      1.98861     -0.00166        -0.051878     -0.164441      0.247858
Li	      3.99004      1.99333     -1.98600         0.322321     -0.081995      0.005756
Li	      0.02382      1.98702     -1.99768        -0.275833     -0.223069      0.205215
Li	      4.11209      3.94737     -3.96724        -0.015053      0.148323     -0.050252
Mn	      6.05180      5.92128     -3.95670         1.348562      1.137522     -1.112355
Mn	      2.01421      0.05257     -1.98439        -0.531009     -1.456681      0.282120
Ni	      2.00836      3.94946     -1.94110        -0.577923      0.261457     -0.045351
Ni	      2.02534      1.96146     -3.93177        -0.103363     -0.390745     -0.976815
O	      3.94489      3.95289     -1.84126         0.959193      0.258208     -0.350332
O	      4.06554      2.01381     -4.09066         0.021991     -0.372404     -0.077541
O	      4.18278      2.07745      0.01809        -0.302499     -0.373079      0.347279
O	      3.84974     -0.05944     -1.97532         0.856947     -0.669427      0.059088
O	      2.17222      3.92349      0.06453        -0.413608      0.254027      1.054631
O	      2.05245      1.88991     -1.97423        -0.344644      0.379016      0.675049
O	      2.06960      5.98766     -2.01070        -0.522431      0.680230      0.193906
O	      1.90227      3.95291     -4.01569        -0.370773      0.613056     -0.458256
