# total energy = -246.17367098 eV
 
CRYSTAL
PRIMVEC
0.063708 6.465268 6.286958 
6.283056 0.054631 6.296835 
4.230466 4.358673 -0.005933 
PRIMCOORD
36 1
Li	      8.40869      2.25812      6.29920         0.009741      0.001129     -0.000664
Li	      6.29684      4.31640      2.19584         0.003972     -0.084291      0.099465
Li	      4.20189      0.15309      4.17924         0.025081      0.072042     -0.058225
Li	      6.21757      2.22497      4.13436        -0.043360      0.028588     -0.026466
Li	      2.19026      4.29829      2.09881         0.033566     -0.011991     -0.007658
Li	      2.22344      2.23196      4.15921         0.036766     -0.006561     -0.040281
Li	      4.17422      4.20431      4.18386        -0.005627     -0.021405     -0.051167
Li	      6.35941      8.67280      6.29558        -0.002503      0.060502      0.026477
Li	      6.32907      6.65220      8.35518        -0.021173      0.064434      0.052399
Sc	      6.35038      4.39556     10.49207        -0.086337      0.094211     -0.122181
Sc	      8.39550      6.51000     10.44761        -0.038410      0.024621     -0.068489
Ti	      0.20837      2.05046      2.08635         0.306608     -0.140798     -0.009251
Ti	      6.46441      4.39603      6.12704         0.226987     -0.087256     -0.604513
Ti	      4.20933      6.50782      6.45218        -0.210570      0.083104      0.434739
V	      8.33408      8.69487      8.38982        -0.082651      0.107310      0.098493
Co	      4.27484      2.22571      2.18844        -0.264711      0.149668      0.142579
Co	      4.15421      2.21908      6.19733         0.020773     -0.055583     -0.061723
Ni	     10.45919      4.42817      6.30838         0.020046      0.004267      0.001369
O	      2.03566      2.17288      2.09628        -0.116989     -0.019996      0.076640
O	      4.24843      4.51032      1.99620         0.047792      0.139396      0.261324
O	      4.19517      2.22129      4.20193         0.067063     -0.087145     -0.281885
O	      6.33552      4.33631      4.33533         0.021342      0.007493      0.698654
O	      6.28449      2.31473      6.40973        -0.064931      0.034305      0.001298
O	      8.35377      4.37731      6.32034        -0.344963      0.078796     -0.066065
O	      2.08221      4.41087      4.16907         0.098923     -0.034612      0.051306
O	      4.24326      6.53903      4.11971         0.069141      0.091013      0.049920
O	      4.32355      4.49707      6.34927         0.049463     -0.012278     -0.025237
O	      6.25193      6.37216      6.30790         0.006285     -0.048519     -0.008952
O	      6.23117      4.22199      8.37284        -0.053093     -0.119256     -0.036516
O	      8.50133      6.61483      8.34020        -0.025756     -0.039611     -0.026367
O	      2.30053      6.48946      6.24838         0.230541      0.036936     -0.001142
O	      4.27098      8.51216      6.31980         0.073815     -0.068508      0.256364
O	      4.24271      6.46013      8.31507        -0.011558      0.088465     -0.431556
O	      6.38513      8.67983      8.35066         0.000302     -0.059459      0.050725
O	      6.34673      6.46778     10.60970         0.030108     -0.106095     -0.305193
O	      8.48258      8.65577     10.38748        -0.005681     -0.162917     -0.068219
