# total energy = -249.25243207 eV
 
CRYSTAL
PRIMVEC
0.051645 6.275564 6.348643 
6.430000 0.048878 6.351069 
4.304737 4.203247 0.014804 
PRIMCOORD
36 1
Li	      4.31217      2.06856      2.24580        -0.007005      0.029597      0.027573
Li	      4.34919      0.19780      4.19907         0.022537      0.034503      0.012162
Li	      6.39564      8.35055     10.54827         0.003052      0.018761      0.046929
Li	     10.71371      6.37408      8.52244        -0.046157      0.030431      0.004829
Li	      2.28037      2.14492      4.25734        -0.006664     -0.001218      0.048173
Li	      4.25555      2.18547      6.30461        -0.003497      0.042089      0.076274
Li	      6.44874      4.22186     10.54560        -0.044644     -0.031889     -0.079547
Li	      8.60665      6.32885     10.49261         0.019616     -0.009802     -0.052135
Li	      2.23877      4.14756      6.30509         0.074611     -0.025214     -0.001904
Sc	      6.51033      6.28205     12.54950        -0.025477      0.082424      0.039371
Sc	      8.53756      4.27209      8.56397        -0.053029      0.087133      0.104228
Ti	      8.58461      8.43283     12.53414        -0.227555      0.065213     -0.617542
Ti	      6.45284      4.20536      2.26471         0.076887     -0.092905      0.313940
Ti	      4.43236      6.29621      6.25899         0.308676     -0.186777     -0.411856
V	      4.27978      4.10920      4.25229        -0.047956      0.148372      0.028849
Co	      6.45827      4.20099      6.34680        -0.074414      0.012784      0.020005
Co	      8.65825      8.35938      8.55905        -0.177240      0.193407     -0.103022
Co	      6.47257      6.39580      8.56922         0.149002     -0.055419      0.046085
O	      2.13674      2.01773      2.02534         0.031539     -0.046332     -0.065557
O	      4.38272      4.18680      2.11042         0.090118     -0.012825     -0.040919
O	      4.30338      2.20666      4.28768         0.032346     -0.112270     -0.033493
O	      6.37737      4.26960      4.18536         0.041856     -0.025936     -0.286971
O	      6.59682      2.11328      6.32612         0.228351     -0.080006     -0.023800
O	      8.65742      4.11955      6.39743        -0.013279     -0.111061     -0.036808
O	      2.29080      4.19759      4.22948        -0.043637     -0.007971     -0.067081
O	      4.32722      6.23015      4.39420        -0.000260      0.023038      0.420419
O	      4.31376      4.31306      6.35210         0.028828      0.177847      0.061643
O	      6.30715      6.31759      6.44804        -0.297659     -0.017616      0.002253
O	      6.46783      4.23714      8.43271        -0.166493     -0.054447      0.008886
O	      8.58781      6.31653      8.45049         0.019774      0.350330      0.003565
O	      2.21407      6.37137      6.43927         0.042410      0.030045      0.046653
O	      4.21811      8.29709      6.33027        -0.065696     -0.067752      0.032601
O	      4.18518      6.29675      8.39533        -0.050881     -0.372921      0.096184
O	      6.52211      8.56145      8.47654         0.176897     -0.005647     -0.022667
O	      6.46613      6.31248     10.59580        -0.000324     -0.020712     -0.128667
O	      8.64580      8.40177     10.69620         0.005367      0.012749      0.531351
