# total energy = -250.96549051 eV
 
CRYSTAL
PRIMVEC
0.000418 6.475259 6.475084 
6.203600 0.074909 6.401530 
4.163086 4.294669 0.022219 
PRIMCOORD
36 1
Li	      2.14666      8.55313      6.49095         0.016723      0.024494     -0.000488
Li	      2.07529      6.50177      8.57594         0.023448     -0.052132      0.013001
Li	      6.22220      8.68143     10.70587         0.009725     -0.028463     -0.024841
Li	      2.03110      2.24452      4.29695        -0.016566      0.017437      0.038894
Li	      6.18500      4.38212      6.46178         0.000994      0.023998      0.051814
Li	      0.02015      4.28296      4.30287         0.038589      0.060976     -0.124709
Li	      6.17988      8.60543      6.46670        -0.003156     -0.043847      0.020562
Li	      4.14517      6.63282      6.47837         0.033197      0.112557      0.073447
Li	      6.18435      6.52786      8.57373        -0.008468     -0.033868      0.015078
Sc	      8.16848      4.30085      4.29523         0.071132     -0.083907     -0.063360
Sc	      8.23268      8.69274      8.61535         0.150964      0.089842      0.006188
Ti	      0.20527      6.44135      6.35280         0.126212     -0.122345     -0.229002
Ti	      4.15306      4.42431      4.36223         0.041759      0.177544     -0.032743
Ti	      8.14482      6.46489      6.42584        -0.519757      0.033266     -0.047837
V	      0.13796      2.14587      2.12682        -0.102081      0.204494     -0.043907
Cr	      4.19200      8.63369      8.60884         0.007720      0.050488      0.008137
Co	      8.20800      4.40552      8.61642         0.456897     -0.329181      0.274477
Cu	      2.05618      6.53838      4.49002         0.021212      0.051014      0.151242
O	      2.11408      2.21477      2.13226         0.034108      0.260228     -0.005238
O	      4.16197      4.24929      2.21242         0.227382     -0.026384      0.011516
O	      4.15465      2.21678      4.32002        -0.056298      0.028573      0.046511
O	      6.10505      4.31086      4.32976        -0.143743      0.007398     -0.001730
O	      6.16841      2.03096      6.52157        -0.021711     -0.081349     -0.010839
O	      8.32620      4.50087      6.40020         0.026019      0.169733      0.125074
O	      2.23634      4.26524      4.27076        -0.055992      0.040269     -0.202364
O	      4.20077      6.33263      4.18871        -0.071821     -0.173875      0.017746
O	      4.15130      4.21079      6.32472        -0.051479     -0.101180     -0.134537
O	      6.33019      6.47574      6.44685         0.534074      0.011173     -0.020123
O	      6.18641      4.28568      8.55100        -0.522398     -0.115469     -0.025462
O	      8.38849      6.55750      8.37637        -0.149828     -0.236591     -0.252093
O	      2.02948      6.50237      6.56194        -0.108745     -0.014059      0.029910
O	      4.16019      8.79104      6.62262         0.008648      0.110584     -0.011256
O	      4.13906      6.57090      8.64473        -0.031892      0.000912      0.042473
O	      6.18186      8.61214      8.61408        -0.007430     -0.001311      0.013697
O	      6.13042      6.50143     10.89121         0.036484     -0.000223      0.238540
O	      8.26682      8.77179     10.65906         0.006076     -0.030793      0.052225
