# total energy = -250.14562189 eV
 
CRYSTAL
PRIMVEC
0.013560 6.360964 6.329595 
6.330541 0.010091 6.333061 
4.239637 4.262310 -0.012641 
PRIMCOORD
36 1
Li	     10.52434      4.30918      6.35346        -0.051725      0.000186     -0.006762
Li	      2.14900      8.46619      6.34766        -0.016175     -0.014996     -0.004640
Li	      2.08338      0.03954      2.04908        -0.064899      0.079934      0.020206
Li	      8.45091      4.25064      8.39221         0.017941     -0.007511     -0.025396
Li	      2.00277      2.21534      4.19641         0.018955      0.027911     -0.047612
Li	      8.48198      6.29670      6.37165         0.006964     -0.049465      0.000855
Li	      6.37857      4.26868      6.34750        -0.017988     -0.017628     -0.023762
Li	      0.09676      4.12899      4.17937         0.064892     -0.006476     -0.043050
Li	      2.18632      6.35388      4.25463         0.055563     -0.047349      0.016957
Sc	      8.42186      4.26308      4.35388        -0.088112      0.033022      0.169110
Sc	      2.14322      4.32111      6.23368         0.126330      0.012967     -0.242059
Ti	      4.06145      2.28215      2.07497        -0.449437      0.320103     -0.027762
Ti	      6.38555      2.14131      4.37105        -0.068982      0.209056      0.521603
Ti	      6.49108      6.25918      8.41545         0.282179     -0.231597     -0.056108
V	      6.34765      2.13505      8.41472         0.049431     -0.134701      0.143924
Cr	      4.22288      6.38158      6.30640         0.018538      0.069660     -0.069824
Co	      4.19963      4.30180      4.20613         0.221572     -0.271437     -0.055554
Ni	      4.20902      4.26855      8.43363         0.060350     -0.047240      0.010811
O	      2.21037      2.11594      2.12697         0.442004      0.071748     -0.047690
O	      4.24801      4.16268      2.06135        -0.074496     -0.278306      0.010729
O	      4.32414      2.11695      4.08667         0.004250      0.088515     -0.003883
O	      6.32298      4.07611      4.18580        -0.183450     -0.020692     -0.040749
O	      6.33477      2.10340      6.23131         0.002316      0.015780     -0.450739
O	      8.46338      4.28570      6.27124        -0.045252     -0.024440     -0.112452
O	      2.16229      4.21104      4.24686         0.196384      0.198284      0.012846
O	      4.27330      6.35168      4.26060        -0.115206     -0.235668      0.030886
O	      4.22538      4.37127      6.39752         0.034197     -0.001105     -0.091630
O	      6.28934      6.41168      6.46466         0.019936     -0.004770      0.207155
O	      6.29887      4.35081      8.47330         0.141878      0.251031     -0.010368
O	      8.38380      6.43237      8.40720        -0.318968     -0.115714      0.023127
O	      2.23767      6.34779      6.34409         0.000218     -0.006550      0.006882
O	      4.26044      8.43197      6.45216         0.019680     -0.002422      0.119825
O	      4.33024      6.43821      8.38835         0.012145      0.094093      0.003735
O	      6.29701      8.37482      8.47168        -0.106253     -0.001388      0.029066
O	      6.30894      6.48295     10.42302        -0.016058      0.044396     -0.098528
O	      8.31344      8.53688     10.46541        -0.178723      0.002771      0.130848
