# total energy = -252.32001208 eV
 
CRYSTAL
PRIMVEC
0.028629 6.375447 6.317325 
6.288870 0.032368 6.313229 
4.212849 4.267626 0.001454 
PRIMCOORD
36 1
Li	      8.30141      2.22130      6.43123        -0.052522      0.005780      0.012492
Li	      6.26836      4.37720      2.18215        -0.043950     -0.008845     -0.010968
Li	      6.27925      2.14448      4.20628         0.001092     -0.022370     -0.017143
Li	      0.15512      2.29861      2.13517         0.006422     -0.040689      0.005715
Li	      8.20274      4.17786      8.49415         0.114630      0.011442      0.070508
Li	      2.07855      2.13647      4.05565        -0.040204      0.036365      0.058189
Li	      6.39554      4.18158      6.47233        -0.033687     -0.041174     -0.025809
Li	      6.34512      4.28394     10.31586         0.025794      0.018199      0.097640
Li	      6.35238      6.22891      8.52280        -0.034588      0.008960      0.006243
Sc	      6.29449      0.07626      6.34839        -0.023877     -0.017437      0.028558
Sc	      4.25585      6.39697      6.27306         0.043481      0.050798      0.057577
Ti	      8.25927      4.17740      4.19036        -0.292241     -0.166358      0.013597
Ti	      8.41337      6.45245      6.40391         0.073190     -0.006565      0.141688
Ti	      6.35795      8.45194      6.35423         0.058590      0.050894      0.049024
V	      4.11960      2.16177      2.16394         0.185048     -0.093640     -0.076996
Cr	      8.38203      6.43139     10.44459        -0.039746      0.004583     -0.037307
Co	      4.29764      4.29289      4.11090        -0.160893      0.017171      0.141223
Co	      4.34338      4.26589      8.45435        -0.102972      0.069217     -0.016372
O	      2.21214      2.13897      2.09470        -0.068766     -0.026051     -0.018097
O	      4.25785      4.13537      2.09454         0.016904      0.109980      0.012052
O	      4.17951      2.06216      4.28892         0.058856     -0.003425      0.078664
O	      6.42041      4.23932      4.19694         0.349274      0.072663     -0.022305
O	      6.14328      2.11017      6.35954        -0.052091      0.024115     -0.013413
O	      8.42085      4.39568      6.17715        -0.086424      0.030407     -0.054536
O	      2.16418      4.39816      4.31750        -0.062330      0.091282      0.038639
O	      4.11246      6.38824      4.23569         0.126013     -0.051573     -0.070650
O	      4.20941      4.23580      6.27123        -0.049802     -0.130223     -0.071880
O	      6.33421      6.47359      6.25421         0.105467      0.055679     -0.000113
O	      6.27344      4.29272      8.39884        -0.052816     -0.020468     -0.020409
O	      8.35467      6.44238      8.35307         0.006726     -0.079046     -0.066377
O	      2.13567      6.33922      6.18310         0.050658     -0.005688     -0.052461
O	      4.31464      8.49227      6.38216         0.014402      0.019926     -0.056767
O	      4.24243      6.45652      8.50575         0.009639      0.039377      0.036633
O	      6.33869      8.58122      8.25934        -0.026364     -0.035731     -0.195639
O	      6.32373      6.40971     10.55901        -0.039619      0.014435      0.027336
O	      8.39209      8.61372     10.55890         0.016704      0.018012     -0.048534
