# total energy = -248.14201933 eV
 
CRYSTAL
PRIMVEC
-0.003445 6.467476 6.149755 
6.553824 0.005277 6.139476 
4.380690 4.316744 -0.006772 
PRIMCOORD
36 1
Li	      6.62154     10.67954      8.29142         0.043560     -0.018665     -0.036690
Li	      4.41369      2.15776      2.17982        -0.026256     -0.020346      0.026545
Li	      4.29127      0.11606      4.03602        -0.076556      0.131085      0.070825
Li	      4.35378      6.37424      2.10791         0.020343     -0.032750     -0.005136
Li	      4.36295      4.26831      4.10741        -0.005008     -0.037425      0.025153
Li	      2.22368      6.45381      4.05064         0.004063     -0.000040      0.008162
Li	      2.33389      4.38734      6.12418         0.087794      0.018786     -0.015871
Li	      4.38272      6.29552      6.19538         0.052026     -0.060941     -0.008189
Li	      8.63138      8.67444      8.18674        -0.018192      0.027151      0.006086
Sc	      2.26336      8.56971      6.18367        -0.047489      0.164442     -0.185532
Sc	      6.39910      4.25589      6.08234        -0.133411     -0.026608     -0.161254
Ti	      0.11898      6.47994      6.18287         0.111451      0.116458     -0.098636
Ti	      4.34575      8.51677      4.03000        -0.317577     -0.171747      0.217503
Ti	      6.40727      6.66507      8.21829        -0.463530      0.230806     -0.177249
V	      8.76286      4.38819      8.20268         0.219951      0.648110     -0.216363
Cr	      2.18936      2.17827      4.09912         0.263110     -0.044723      0.175296
Cu	      6.43302      2.29130      3.99367        -0.155736      0.031808      0.015224
Cu	      4.27444      2.26286      6.12865        -0.018279      0.135777      0.258727
O	      2.23851      2.30091      2.08190        -0.087937      0.418318      0.165286
O	      4.29968      4.35143      1.89375        -0.540860      0.051185     -0.000777
O	      4.18741      2.20439      4.20023        -0.075063     -0.073001     -0.567763
O	      6.55128      4.47913      4.07437         0.007994     -0.085258     -0.023931
O	      6.69552      2.05363      6.09516         0.215691     -0.250603     -0.067012
O	      8.80555      4.24277      6.16692         0.136446     -0.551388     -0.317643
O	      2.09972      4.24765      4.06100        -0.150101     -0.090111      0.109510
O	      4.49395      6.62167      4.09411         0.005614      0.229412     -0.084047
O	      4.42087      4.27434      6.16839         0.048256      0.431479      0.051454
O	      6.45886      6.36664      6.18924        -0.203323      0.013127      0.192860
O	      6.64092      4.38670      8.22091         0.402031     -0.071185      0.115501
O	      8.60162      6.36309      8.10233         0.147356     -0.803970      0.370421
O	      2.01286      6.50047      6.19494        -0.251420     -0.088387      0.013112
O	      4.35170      8.80952      6.03997         0.033732      0.070286     -0.036516
O	      4.57134      6.50798      8.21302         0.376075      0.038774      0.015250
O	      6.57882      8.50906      8.16633        -0.014327     -0.167675      0.157506
O	      6.62202      6.27988     10.20772         0.037398     -0.130272      0.042443
O	      9.02156      8.52777     10.23760         0.372176     -0.031909     -0.034256
