# total energy = -251.25530294 eV
 
CRYSTAL
PRIMVEC
0.028269 6.316072 6.312700 
6.391309 0.020660 6.320787 
4.295400 4.251199 -0.021129 
PRIMCOORD
36 1
Li	      6.41669      4.20599      2.14978        -0.028966     -0.043997      0.019529
Li	      8.49324      4.28563      4.19228        -0.031897     -0.023062      0.020560
Li	     10.65595      6.39002      8.40826        -0.040206      0.018784      0.052497
Li	      4.34188      4.35102      4.24476         0.040213      0.044425     -0.020931
Li	      4.27090      2.24541      6.31358         0.026184      0.057390     -0.023118
Li	      6.31374      4.23355      6.30733        -0.031977     -0.001100     -0.027688
Li	      2.22878      6.32184      4.18039         0.051819      0.010214     -0.050928
Li	      4.35398      6.22490      6.27820         0.060139      0.017537     -0.034453
Li	      4.34233      4.24838      8.28133         0.094821      0.045790     -0.020534
Sc	      6.36427      2.22010      4.24197        -0.028190      0.052743     -0.032337
Sc	     10.65187      8.49016     10.54698         0.016746     -0.065657     -0.025999
Ti	      2.11700      8.27493      6.36573        -0.130627     -0.139715     -0.046567
Ti	      4.23366      8.34987      8.38410        -0.032107     -0.124429      0.110936
Ti	      8.58960      4.37218      8.34016         0.139175      0.199844     -0.115866
V	      6.43016      6.28999      4.22367         0.005290      0.009507     -0.005613
Cr	      6.42158      6.34936      8.33765         0.016352     -0.006460     -0.047077
Fe	      2.38534      4.30202      6.28021        -0.127184      0.003648     -0.009580
Cu	      6.43381      0.14860      6.26983         0.067400      0.132704      0.010179
O	      2.15046      2.10912      2.13969         0.010718      0.018965     -0.106095
O	      4.08307      4.07726      2.18401        -0.183518     -0.057243     -0.019343
O	      4.24220      2.07148      4.12883         0.037821     -0.024061     -0.045001
O	      6.42342      4.23297      4.16729         0.027554     -0.089880      0.028694
O	      6.50720      2.18401      6.31967         0.000858     -0.013180      0.037056
O	      8.51672      4.04993      6.49862        -0.005200     -0.017270      0.165584
O	      2.10080      4.21375      4.22790        -0.019841      0.021114     -0.085146
O	      4.42787      6.41613      4.13862        -0.046706      0.031499      0.068522
O	      4.23329      4.24141      6.33869         0.171215      0.010302     -0.049305
O	      6.46886      6.48992      6.26066        -0.017173      0.011141      0.076780
O	      6.51548      4.33530      8.45309         0.034973     -0.009115      0.007827
O	      8.49571      6.24233      8.37054        -0.012905     -0.261696     -0.003263
O	      2.24659      6.33886      6.37437        -0.013232      0.077455     -0.004158
O	      4.22622      8.44621      6.34376        -0.017395      0.005443      0.061748
O	      4.40156      6.44344      8.37520         0.000588      0.172642      0.017139
O	      6.32799      8.41698      8.33647        -0.011443     -0.029609      0.013539
O	      6.42239      6.36880     10.33585        -0.012565     -0.028101     -0.021723
O	      8.54573      8.43108     10.68046        -0.010735     -0.006574      0.104136
