# total energy = -255.37315169 eV
 
CRYSTAL
PRIMVEC
-0.009593 6.344145 6.378495 
6.351479 -0.020533 6.389269 
4.249415 4.251627 -0.028524 
PRIMCOORD
36 1
Li	      6.28201      0.07815      6.34824        -0.002176     -0.058386      0.005862
Li	      6.38335      4.18714      2.22827         0.000981      0.038945      0.026134
Li	      6.31962      2.18061      4.29709         0.008149     -0.000957     -0.006788
Li	      4.36154      4.17059      4.27843        -0.016582     -0.008500     -0.027806
Li	      4.36046      2.16796      6.38521         0.026441      0.005788     -0.042215
Li	      6.30988      4.13121      6.32464         0.011765      0.017068     -0.005000
Li	      6.34176      4.23977     10.55784        -0.030100      0.021547     -0.017610
Li	      8.49150      8.39497      8.45871         0.028301     -0.004314      0.012807
Li	      6.36504      6.34623      8.50548        -0.048809     -0.005763      0.007474
Sc	      8.37903      2.04668      6.38240         0.214279      0.033660     -0.085124
Sc	      4.25768      6.29727     10.60684         0.053974     -0.033930      0.071815
Ti	      8.32785      4.32594      8.44543        -0.264215     -0.016918     -0.028989
Ti	      4.40810      2.23021      2.18189        -0.005943      0.375153      0.105165
Ti	      4.32760      6.24635      6.37833         0.162837     -0.088703      0.106608
V	      8.35839      6.35141     10.59274        -0.135586     -0.007078      0.009450
Cr	      2.12139      4.23825      6.39712        -0.020106      0.039728     -0.008121
Fe	      4.23689      6.31402      2.11867         0.031352     -0.016035     -0.120089
Fe	      6.31848      6.30057      4.21448         0.077452      0.140185      0.001486
O	      2.20491      2.25285      2.08786         0.011864     -0.012342     -0.091829
O	      4.16700      4.14956      2.11833         0.036524     -0.460142     -0.000660
O	      4.25384      2.06697      4.13169         0.053500      0.031644     -0.211684
O	      6.46449      4.30600      4.23505        -0.075710     -0.135650      0.034274
O	      6.39578      2.07234      6.46434        -0.123576      0.036109      0.075761
O	      8.50860      4.16667      6.42062        -0.057699      0.023879      0.042783
O	      2.09997      4.28737      4.04731        -0.036928      0.003740     -0.104945
O	      4.11217      6.35462      4.33367         0.032240      0.001711     -0.002444
O	      4.19917      4.36267      6.41917         0.034731      0.140956     -0.027498
O	      6.21457      6.43640      6.34797        -0.180183     -0.106404      0.101241
O	      6.48199      4.19079      8.47589         0.310304      0.156442     -0.033647
O	      8.43985      6.24642      8.49290        -0.103256     -0.031865      0.074521
O	      2.20664      6.31781      6.31281         0.038650      0.043237     -0.060723
O	      4.23826      8.33776      6.48628        -0.006056     -0.046716      0.143231
O	      4.23378      6.46016      8.43087        -0.008587      0.022120     -0.034497
O	      6.21143      8.53404      8.55224        -0.088794     -0.085730      0.070592
O	      6.38643      6.29751     10.64396         0.044008      0.001032     -0.030925
O	      8.47138      8.41186     10.63934         0.026953     -0.013512      0.051390
