# total energy = -92.74039844 eV
 
CRYSTAL
PRIMVEC
2.096612 4.033047 2.024225 
4.097513 -1.972507 -2.017120 
0.026242 4.028404 -4.065400 
PRIMCOORD
16 1
Li	      2.01740      2.00896     -0.00168        -0.040295     -0.119366      0.172377
Li	      4.03086      2.01372     -2.00631         0.226706     -0.061846      0.006025
Li	      0.02407      2.00735     -2.01812        -0.200532     -0.166532      0.155631
Li	      4.15415      3.98775     -4.00783        -0.004779      0.107705     -0.032905
Mn	      6.11371      5.98185     -3.99718         0.997425      0.881603     -0.845277
Mn	      2.03482      0.05310     -2.00469        -0.366643     -1.051077      0.203856
Ni	      2.02891      3.98986     -1.96095        -0.416296      0.184225     -0.033190
Ni	      2.04606      1.98152     -3.97199        -0.048830     -0.270862     -0.717034
O	      3.98524      3.99332     -1.86009         0.721965      0.154976     -0.244420
O	      4.10713      2.03442     -4.13250        -0.017030     -0.277144     -0.074285
O	      4.22557      2.09870      0.01828        -0.202550     -0.270872      0.234953
O	      3.88912     -0.06004     -1.99553         0.601501     -0.524853      0.047223
O	      2.19444      3.96363      0.06519        -0.290453      0.182676      0.809030
O	      2.07345      1.90924     -1.99443        -0.256280      0.231228      0.516921
O	      2.09078      6.04892     -2.03127        -0.411597      0.535972      0.151456
O	      1.92173      3.99335     -4.05677        -0.292314      0.464166     -0.350361
