# total energy = -246.46177386 eV
 
CRYSTAL
PRIMVEC
0.029929 6.341969 6.271265 
6.359616 0.022880 6.278329 
4.243139 4.235923 0.012035 
PRIMCOORD
36 1
Li	      6.40917      6.33152     12.48522         0.013847     -0.005640     -0.031949
Li	      6.33938      4.22448      2.24345        -0.032440     -0.027157     -0.065991
Li	      4.26385      6.33012     10.33863        -0.004422      0.020626     -0.023528
Li	      4.27111      6.33370      2.31220        -0.020703     -0.004720     -0.061112
Li	      6.26476      6.25384      4.06202        -0.008236     -0.099345     -0.012769
Li	      4.33411      4.34104      4.06649         0.028553     -0.003215      0.041630
Li	      6.35010      4.21852     10.38412        -0.026935     -0.012441      0.023075
Li	      8.53017      6.41419     10.44016        -0.007913      0.036086      0.013752
Li	      8.50905      8.53478      8.51521         0.021646      0.067347      0.003198
Sc	      6.36661      4.23448      6.21190        -0.037024      0.057910     -0.003500
Sc	      4.21020      6.36056      6.16712         0.068639     -0.050863      0.059546
Ti	      8.47333      8.47358     12.48575        -0.050193      0.052540     -0.116455
Ti	      2.20146      4.21454      2.31636         0.237720     -0.009105      0.185144
Ti	      4.31834      2.09276      6.16982        -0.058781     -0.038220     -0.270922
V	      6.37313      6.36443      8.49739        -0.006120     -0.100598      0.032233
Cr	      2.10277      4.29200      6.25168         0.018086     -0.085587      0.051367
Ni	      4.22529      2.13126      2.16488        -0.012300     -0.008177      0.066814
Ni	      6.41924      8.49112     10.39198        -0.028999     -0.046686      0.086714
O	      2.13650      2.23784      1.98925        -0.129140      0.083798     -0.024200
O	      4.06691      4.19161      2.12674        -0.261134      0.118604      0.011115
O	      4.27387      2.09693      4.30729        -0.068368     -0.014578      0.309326
O	      6.37418      4.19252      4.22037        -0.010490      0.180073      0.022036
O	      6.36497      2.11927      6.28799         0.032003     -0.066412      0.033081
O	      8.48234      4.24017      6.34027         0.069015     -0.059848      0.038298
O	      2.12540      4.24558      4.18637        -0.016019      0.010787     -0.154125
O	      4.27227      6.34218      4.23249        -0.040738      0.013930      0.037149
O	      4.18666      4.16364      6.31982        -0.086160     -0.027780     -0.031949
O	      6.43666      6.43219      6.31939         0.054661      0.039279     -0.103063
O	      6.49781      4.27318      8.35364         0.012503     -0.008034      0.022019
O	      8.43326      6.22947      8.23433         0.057074     -0.008922     -0.013911
O	      2.14870      6.37111      6.31593        -0.058528      0.029364     -0.059006
O	      4.24678      8.45911      6.29741         0.004352      0.070802     -0.091060
O	      4.39860      6.39238      8.32586         0.020753     -0.154706      0.025233
O	      6.32817      8.46767      8.27913         0.167237      0.105352     -0.100898
O	      6.43288      6.46799     10.38006         0.013861     -0.071231     -0.091180
O	      8.48824      8.50101     10.63218         0.144694      0.016768      0.193888
