# total energy = -241.76410239 eV
 
CRYSTAL
PRIMVEC
0.019588 6.486372 6.300808 
6.373778 0.041127 6.280156 
4.258220 4.319332 0.017985 
PRIMCOORD
36 1
Li	      0.01477      0.05951      0.05267         0.011266      0.034520     -0.048595
Li	      2.06654      2.10349      0.02695        -0.025485     -0.044955     -0.021621
Li	      6.32640      4.46388      2.19207         0.056509      0.033359     -0.022465
Li	      6.43888      2.25436      4.22343         0.005386      0.022679      0.019010
Li	      4.40047      6.34029      2.19342         0.039082     -0.010364     -0.072934
Li	      2.18971      4.25287      2.15294        -0.023858     -0.048338      0.033380
Li	      6.21220      6.44843      4.10262         0.000649      0.000599      0.014476
Li	      4.30122      4.50851      4.06977         0.005031     -0.002648      0.016949
Li	      4.24078      6.55335      6.16583        -0.019700     -0.022663      0.011768
Sc	      4.32731      2.13291      6.17092         0.009789      0.009512     -0.131624
Sc	      6.42042      4.29806      6.20362        -0.026071      0.000898     -0.003847
Ti	      4.10644      2.37715      2.18816        -0.217495      0.265672      0.171141
Ti	      2.07046      4.48253      6.19961        -0.024409      0.351422     -0.099477
Ti	      6.36306      6.49208      8.48265        -0.066000     -0.076557      0.147461
V	      8.47076      8.70260      8.47521        -0.012891      0.054354      0.038903
Cu	      8.48671      4.31944      4.23424         0.005046      0.032782     -0.020971
Ni	      4.25378      8.52938      4.24467         0.013989      0.021076      0.020612
Ni	      2.23312      6.45687      4.21896        -0.056921     -0.028344      0.019307
O	      2.29388      2.17804      2.07821         0.283115      0.041919     -0.003272
O	      4.24901      4.19239      2.10438        -0.044213     -0.193225     -0.028375
O	      4.32069      2.26999      4.09720         0.019671      0.183086     -0.197794
O	      6.50040      4.35505      4.20880        -0.177497      0.006162     -0.046062
O	      6.33457      2.26186      6.32519         0.000948      0.004725      0.015333
O	      8.48084      4.40064      6.25188         0.015415     -0.004337      0.101782
O	      2.08426      4.35235      4.32895         0.065120     -0.085585      0.135548
O	      4.23595      6.51895      4.17430         0.145483     -0.131394     -0.035198
O	      4.18696      4.28939      6.40292        -0.037320      0.023414     -0.035854
O	      6.43522      6.51479      6.42136        -0.031252      0.027396      0.036563
O	      6.32537      4.52119      8.37607        -0.000993      0.126823     -0.033222
O	      8.35728      6.61575      8.38358        -0.126948     -0.074558     -0.029446
O	      2.15280      6.32438      6.30848        -0.021326     -0.422468      0.079615
O	      4.42920      8.61678      6.42951         0.107009     -0.024025      0.052980
O	      4.35858      6.46164      8.43637         0.129798      0.011846     -0.023686
O	      6.35879      8.51776      8.32918         0.005292     -0.084189      0.040416
O	      6.34544      6.43269     10.39094         0.075156      0.054198     -0.143207
O	      8.56350      8.54015     10.42012        -0.081377     -0.052793      0.042404
