# total energy = -240.91736869 eV
 
CRYSTAL
PRIMVEC
-0.002461 6.592951 6.350877 
6.225033 0.016819 6.332918 
4.151087 4.384514 0.009108 
PRIMCOORD
36 1
Li	      6.19819      4.40438      2.19081         0.018504      0.033219     -0.003629
Li	      4.14085      2.32931      2.16281         0.014572      0.040934      0.033427
Li	      4.21828      6.56618      2.34711        -0.016444     -0.041023     -0.097932
Li	      1.96939      2.32793      4.12141         0.061295      0.012886      0.009389
Li	      4.07565      4.61274      4.13518         0.097410     -0.063049      0.005560
Li	      6.09142      4.53546      6.31483         0.030522     -0.009987     -0.066425
Li	      2.19439      6.35819      4.22768        -0.155620      0.078342     -0.036134
Li	      6.18203      8.69183      6.34043        -0.046957     -0.079889      0.059778
Li	      6.20543      6.57471      8.39177         0.020228     -0.013224      0.007805
Sc	      2.10588      2.23570      0.15744         0.004403      0.024017     -0.021669
Sc	      8.13413      6.55453      6.31509         0.138370     -0.101699      0.059765
Ti	      4.30704     10.94862      6.52646         0.033216     -0.052721      0.249914
Ti	      4.11378      6.63878     10.32803        -0.075870      0.118264     -0.088407
Ti	      4.21107      4.24703      8.35622         0.132187     -0.141649     -0.154963
V	      6.25560      8.75294     10.51315        -0.048800      0.098520      0.112219
Cu	      2.01691      4.35076      2.18457         0.036885      0.019563     -0.020644
Cu	      4.23991      8.64357      4.21648        -0.013149      0.058967     -0.023287
Cu	      4.20116      6.55770      6.28770        -0.099407     -0.002247      0.121146
O	      2.06612      2.25526      2.09671        -0.008989     -0.206936      0.138005
O	      4.21370      4.46760      2.01751         0.015324     -0.007161     -0.188352
O	      4.16894      1.97936      4.20532        -0.137351     -0.126533     -0.000165
O	      6.39253      4.18162      4.27484         0.072278      0.129281      0.050717
O	      6.22553      2.03220      6.20840        -0.031337      0.003010      0.140927
O	      8.38350      4.41035      6.40628        -0.075018      0.031317     -0.188327
O	      1.99625      4.39346      4.09141         0.050882     -0.001483      0.162411
O	      4.13850      6.61722      4.36291        -0.036858     -0.160789     -0.008816
O	      4.08869      4.23883      6.46492         0.040032      0.030098      0.028230
O	      6.16486      6.57644      6.33574        -0.077050     -0.032240     -0.063929
O	      6.07263      4.47033      8.39782        -0.229821      0.035786     -0.089226
O	      8.31829      6.74277      8.42604         0.009399      0.304834      0.089615
O	      2.05346      6.70974      6.34888        -0.048701     -0.072520     -0.006169
O	      4.16848      9.05927      6.43384         0.159143      0.242720     -0.061583
O	      4.12374      6.51099      8.48712         0.078354     -0.052052      0.180221
O	      6.36747      8.76690      8.59496         0.049689     -0.011160     -0.264710
O	      6.09162      6.70791     10.68095         0.007568     -0.094087     -0.041118
O	      8.38196      8.97280     10.53635         0.031111      0.008694     -0.023642
