# total energy = -245.29972714 eV
 
CRYSTAL
PRIMVEC
-0.004777 6.274078 6.196693 
6.552622 -0.016446 6.209017 
4.372357 4.194616 -0.014807 
PRIMCOORD
36 1
Li	      2.20499      2.07174      0.17820         0.071821      0.015048     -0.012276
Li	      6.32494      4.02145      2.03134         0.007724     -0.012427      0.009109
Li	      4.54297      8.49818      8.20709         0.030889     -0.032339      0.000088
Li	      6.48676      8.34359     10.22380        -0.030032      0.029094      0.011544
Li	      0.13687      1.86695      1.95269         0.060044      0.025837     -0.012367
Li	      2.38204      4.07982      1.92992         0.004719     -0.058807     -0.040857
Li	      4.36989      4.17684      3.92730         0.024521     -0.023027     -0.007428
Li	      6.53911      8.38280      6.38754         0.006941      0.011196      0.022601
Li	      8.48252      8.39389      8.26220        -0.035212      0.048428      0.013553
Sc	      2.18978      2.13916      3.95964        -0.042783     -0.066437     -0.072902
Sc	      6.51697      4.20825     10.27634        -0.026101     -0.033545     -0.138451
Ti	      8.54884      4.12861      4.13648        -0.579673     -0.047239      0.046200
Ti	      2.21329      6.19527      4.03309         0.032314     -0.064675      0.040566
Ti	      4.30875      6.26629      6.35588        -0.147231     -0.011405      0.208692
V	      4.40846      2.13539      6.26997        -0.039271     -0.003107     -0.104768
Fe	      6.51452      4.12158      6.36172         0.064486     -0.035469     -0.066062
Co	      4.42594      4.17518      0.07721        -0.012339      0.033624      0.081396
Ni	      6.55168      6.38582      8.24423        -0.070534      0.100482      0.061817
O	      2.09632      2.10808      2.07692        -0.030864     -0.020650      0.051779
O	      4.36831      4.15361      1.98448        -0.067326     -0.017435      0.005560
O	      4.26465      1.94014      4.23938         0.024330     -0.007945     -0.047353
O	      6.69994      4.18765      4.14762         0.408493      0.003785      0.028218
O	      6.31893      2.01925      6.20353        -0.006659     -0.061260      0.037303
O	      8.75471      4.21398      6.04317         0.018545      0.008616     -0.109123
O	      2.14931      4.31424      4.09161         0.031293      0.183407     -0.010256
O	      4.29404      6.31626      4.17427        -0.038032     -0.058240      0.033925
O	      4.38423      4.30330      6.18475        -0.046236      0.050369      0.019673
O	      6.52590      6.31180      6.15631        -0.069239      0.008178     -0.026720
O	      6.58719      4.36564      8.29967         0.024512     -0.330426      0.172923
O	      8.71938      6.34292      8.34670         0.020604     -0.018862      0.096752
O	      2.39761      6.29192      6.05727         0.159029      0.019729     -0.027977
O	      4.41846      8.21297      6.17659         0.005730     -0.052846     -0.052761
O	      4.39444      6.27396      8.30869         0.043316      0.007688     -0.202463
O	      6.54236      8.31523      8.30673        -0.004433      0.368868      0.041119
O	      6.77249      6.27797     10.45719         0.144801      0.028585     -0.051235
O	      8.81279      8.45690     10.34461         0.061852      0.013206      0.000181
