# total energy = -250.28426351 eV
 
CRYSTAL
PRIMVEC
-0.009022 6.383462 6.427467 
6.363191 0.003758 6.414877 
4.247597 4.252901 -0.003042 
PRIMCOORD
36 1
Li	      2.10260      6.42234      8.51302         0.014010      0.014948     -0.020460
Li	      4.21798      8.50925      8.50850        -0.015151     -0.026115     -0.024531
Li	      4.25509      6.40510      2.28097         0.043926      0.017144      0.038706
Li	      4.10873      4.37298      4.28559         0.010788      0.011715      0.047295
Li	      0.11402      4.13676      4.20115         0.014713     -0.056568      0.009540
Li	      2.14434      4.24472      6.35334        -0.008257     -0.026405      0.013505
Li	      4.23272      6.37779      6.38571         0.038076      0.012579     -0.019878
Li	      4.29043      4.26219      8.54228        -0.021201     -0.012380      0.017277
Li	      6.35936      6.34725      8.58024         0.007737      0.025284      0.025273
Sc	      8.45506      6.45902      6.56793        -0.081602      0.094435     -0.069200
Sc	      6.31218      4.27739      6.56674        -0.070114      0.065332     -0.010944
Ti	      4.31684     10.50085      6.57361         0.157270     -0.276845      0.181305
Ti	      4.25766      6.35284     10.49732         0.011646     -0.159062     -0.460397
Ti	      6.32999      8.53810     10.51212         0.121885      0.005999     -0.505873
V	      6.26192      6.41811      4.21150         0.033804      0.140485     -0.102605
Fe	      2.21924      6.25528      4.23362        -0.013835      0.607912     -0.111735
Co	      2.13722      2.10185      0.12358         0.050559     -0.057642      0.021689
Co	      2.09967      4.25253      2.18813        -0.008739      0.064741      0.272404
O	      2.14762      2.16914      2.20942        -0.013246     -0.081779     -0.008850
O	      4.22617      4.27126      1.96981        -0.014801     -0.045745     -0.318218
O	      4.28340      2.00826      4.29697         0.046799     -0.015584      0.035205
O	      6.47066      4.17136      4.28537         0.077961     -0.087542      0.010312
O	      6.33422      2.11121      6.30920        -0.053140     -0.068337      0.013116
O	      8.54452      4.28201      6.30844         0.063396      0.007342      0.062610
O	      2.13448      4.23295      4.31567         0.002638     -0.636295     -0.129008
O	      4.34642      6.36771      4.29310        -0.015855     -0.033377      0.001777
O	      4.30277      4.21116      6.45355         0.002574     -0.024687      0.013386
O	      6.41789      6.33219      6.27923         0.084564      0.031902      0.068991
O	      6.40368      4.28356      8.53834        -0.002833     -0.034485     -0.069832
O	      8.48026      6.36382      8.56918        -0.004144      0.025617      0.189677
O	      1.96050      6.41351      6.38678        -0.155151     -0.045145     -0.138209
O	      4.19577      8.65513      6.42315        -0.029196      0.342300      0.027560
O	      4.24342      6.38448      8.71130         0.024950     -0.048375      0.480568
O	      6.34227      8.50629      8.73370        -0.064420      0.038658      0.438944
O	      6.22268      6.53486     10.76441        -0.142350     -0.056179      0.048865
O	      8.32863      8.61810     10.74630        -0.093262      0.286152     -0.028264
