# total energy = -245.02712397 eV
 
CRYSTAL
PRIMVEC
-0.013815 6.582862 6.423593 
6.239005 0.037402 6.372150 
4.164446 4.358756 0.020474 
PRIMCOORD
36 1
Li	      8.32277      2.34892      6.49836         0.025239      0.056492      0.001780
Li	      6.27607      4.42034      2.24809         0.073987      0.036999      0.010587
Li	      4.17836      2.18121      2.16960         0.013235     -0.096806     -0.023742
Li	      8.31743      4.46000      4.33814         0.003530      0.005233     -0.007830
Li	      6.11795      2.34911      4.29108         0.122381      0.027232     -0.074091
Li	      8.33013      4.39317      8.38944        -0.011145     -0.008822      0.084302
Li	      4.27539      4.19582      4.23765        -0.026336     -0.023074      0.060876
Li	      4.27499      2.05634      6.27924        -0.046912      0.011567      0.015744
Li	      8.28204      8.78969      8.58967        -0.021259     -0.027358     -0.024389
Sc	      2.23927      2.17497      4.16169        -0.023158     -0.008511      0.000221
Sc	      6.33173      4.35025      6.37497        -0.154076     -0.010149      0.025716
Ti	     10.21361      8.79156     10.70286        -0.316616      0.121098     -0.026651
Ti	      2.18189      4.50357      6.39639         0.219375      0.040536      0.056445
Ti	      6.15375      6.64860      8.53097        -0.114083      0.057558      0.133329
V	      4.13550      6.34884      2.13161        -0.048038      0.249077      0.051326
Fe	      8.28983      6.63558     10.65434        -0.068892     -0.003988     -0.026676
Cu	     10.29473      4.44122      6.45611         0.044439      0.057113      0.076036
Ni	      4.13819      6.58062      6.42778        -0.022351     -0.045726     -0.078220
O	      1.93778      2.19171      2.14371         0.163871     -0.002705     -0.022736
O	      4.13299      4.60516      2.27921        -0.019384     -0.357969     -0.097580
O	      4.17761      2.23224      4.18728         0.101714     -0.036441      0.052397
O	      6.23857      4.47184      4.33956         0.046980      0.004548      0.013762
O	      6.20461      2.34286      6.58625         0.037423     -0.039355     -0.253704
O	      8.28660      4.40714      6.40460         0.299339     -0.015571      0.020325
O	      2.00800      4.32546      4.45882        -0.043978      0.022312      0.062827
O	      4.18144      6.74976      4.17873        -0.032995      0.091682      0.076957
O	      4.06827      4.50797      6.39085        -0.243385     -0.079176     -0.044681
O	      6.24696      6.59784      6.47007         0.077988     -0.004675     -0.016742
O	      6.22811      4.45298      8.60728         0.006797      0.166555      0.014808
O	      8.32068      6.60436      8.59738        -0.079563     -0.059966     -0.031962
O	      2.04370      6.39010      6.39623        -0.242380     -0.101948      0.040112
O	      4.23074      8.60549      6.27352        -0.043664      0.100916     -0.089980
O	      4.30406      6.56598      8.45350         0.084355      0.032753      0.130318
O	      6.23008      8.57365      8.38163        -0.023057     -0.084700     -0.097042
O	      6.20323      6.40578     10.44844        -0.047123     -0.064450     -0.025553
O	      8.38250      8.78658     10.72109         0.307741     -0.010280      0.013713
