# total energy = -244.85174059 eV
 
CRYSTAL
PRIMVEC
0.015571 6.347713 6.481155 
6.394520 0.041344 6.455101 
4.277975 4.228950 0.013195 
PRIMCOORD
36 1
Li	      6.38908      0.07135      6.45599         0.023923      0.006750     -0.037289
Li	      4.41317      8.35471      8.65655        -0.021731      0.038630     -0.049613
Li	      4.25451      6.44523     10.64621         0.017593     -0.055402     -0.055168
Li	      4.37099      4.21481      4.34467        -0.033592     -0.035002      0.004744
Li	      6.33375      4.28412      6.40143        -0.003630     -0.066704      0.029038
Li	      6.45568      8.39604      6.69171        -0.077392      0.059180     -0.002511
Li	      4.40172      6.28632      6.65181         0.035872      0.004820      0.000133
Li	      4.19789      4.39122      8.45299         0.020181     -0.038094     -0.013429
Li	      6.20712      6.50947      8.58925        -0.004425      0.006256      0.063334
Sc	      6.42300      4.33284     10.76756        -0.071652      0.103942      0.074760
Sc	      2.13454      6.36378      4.36217        -0.105087      0.080103      0.053689
Ti	      2.21940      8.46894      6.48541         0.215930     -0.084240     -0.199599
Ti	      2.23586      4.22313      2.12537         0.050917      0.062378      0.019841
Ti	      4.09296      2.29231      6.34824        -0.020238      0.153774     -0.074230
V	      6.41445      2.14652      8.55192         0.039127      0.031880      0.041871
Fe	      6.61221     10.44587      8.72502        -0.244143      0.213603     -0.218937
Cu	      6.33803      8.48609     10.68730         0.022487     -0.162330     -0.027722
Cu	      6.38228      6.19020      4.44546        -0.008355      0.022883      0.134690
O	      2.12913      2.18923      2.00825         0.047497      0.044621     -0.065054
O	      4.16320      4.30319      2.17274        -0.036069     -0.060071      0.009885
O	      4.23456      2.07743      4.50443        -0.178774      0.028767      0.130977
O	      6.37766      4.16837      4.18302        -0.026014      0.243664      0.265962
O	      6.43763      2.16357      6.58156        -0.047325      0.040242      0.073147
O	      8.53261      4.22695      6.64464        -0.005989      0.059949      0.080550
O	      2.11295      4.30755      4.15409         0.082408     -0.049658     -0.014506
O	      4.23251      6.39598      4.17725         0.114746     -0.048776      0.041899
O	      4.26789      4.11319      6.46856        -0.082454     -0.325929     -0.075093
O	      6.53215      6.37315      6.59013         0.138197      0.044214      0.007805
O	      6.56842      4.15455      8.67962         0.040867      0.048875     -0.008610
O	      8.61357      6.26099      8.57876        -0.094086     -0.097689     -0.028402
O	      2.11480      6.52960      6.49318         0.004403      0.000908     -0.042178
O	      4.10443      8.49388      6.43102        -0.067222      0.016846     -0.039773
O	      4.21054      6.35550      8.62043         0.170669      0.033039     -0.005946
O	      6.40210      8.56544      8.61784        -0.022560     -0.201239     -0.140880
O	      6.48035      6.39010     10.75790         0.044803     -0.141558      0.003203
O	      8.60822      8.50452     10.98011         0.081118      0.021367      0.063414
