# total energy = -93.05869830 eV
 
CRYSTAL
PRIMVEC
2.117897 4.073991 2.044775 
4.139112 -1.992532 -2.037598 
0.026508 4.069301 -4.106674 
PRIMCOORD
16 1
Li	      2.05857      2.04995     -0.00172        -0.019147     -0.041726      0.043435
Li	      4.11312      2.05482     -2.04726         0.055406     -0.022167      0.010000
Li	      0.02456      2.04831     -2.05930        -0.063020     -0.055918      0.064557
Li	      4.23893      4.06913     -4.08962         0.014362      0.039772     -0.007590
Mn	      6.23847      6.10393     -4.07875         0.313601      0.315531     -0.302921
Mn	      2.07635      0.05419     -2.04560        -0.091401     -0.325979      0.058644
Ni	      2.07031      4.07128     -2.00097        -0.137177      0.050802     -0.011643
Ni	      2.08781      2.02196     -4.05305         0.029480     -0.076868     -0.252135
O	      4.06657      4.07482     -1.89805         0.301106     -0.034423     -0.043167
O	      4.19095      2.07593     -4.21684        -0.048526     -0.092683     -0.057598
O	      4.31181      2.14153      0.01865        -0.039315     -0.073509      0.009032
O	      3.96848     -0.06127     -2.03625         0.163315     -0.193883      0.015726
O	      2.23922      4.04452      0.06652        -0.067195      0.056484      0.344986
O	      2.11576      1.94820     -2.03513        -0.095055     -0.011461      0.239514
O	      2.13344      6.17236     -2.07273        -0.194962      0.258585      0.058497
O	      1.96095      4.07485     -4.13956        -0.121470      0.207443     -0.169337
