# total energy = -249.43357596 eV
 
CRYSTAL
PRIMVEC
0.044639 6.427824 6.515355 
6.276212 0.053275 6.507380 
4.186195 4.282211 0.034083 
PRIMCOORD
36 1
Li	      2.16229      8.58516      6.53294         0.022065      0.026599      0.020426
Li	      8.33743      4.39716      8.66108        -0.043642      0.021070     -0.026913
Li	      6.25468      6.41277      4.46889         0.005701      0.033150      0.024331
Li	      4.30703      4.31409      4.44941        -0.064044     -0.004304      0.101937
Li	      8.28384      6.44848      6.66002        -0.001606     -0.011887      0.036317
Li	      6.30064      4.40607      6.50801         0.012087      0.043755      0.049259
Li	      6.30528      4.31680     10.77606         0.009572     -0.016793     -0.056257
Li	      2.12280      6.39776      4.33161         0.012370     -0.038140     -0.052505
Li	      6.36191      6.45654      8.58849        -0.003894     -0.021438     -0.043893
Sc	      8.28610      4.30776      4.41574         0.116160      0.082613     -0.000067
Sc	      4.15414      4.34377      8.64010         0.075018     -0.096956     -0.049718
Ti	      6.33573      6.55713     12.95581        -0.070525      0.117775     -0.187861
Ti	      4.09004      2.21916      2.19212        -0.116910     -0.037239      0.291260
Ti	      4.19409      6.48703      2.33314        -0.069749      0.174054      0.299377
V	      2.12878      4.23447      6.30367         0.096884     -0.038523     -0.113118
Fe	      6.27233      2.19373      4.47585        -0.080643     -0.043935      0.008911
Fe	      4.19780      6.43041      6.46066        -0.059384     -0.013316     -0.091228
Cu	      6.19494      4.44509      2.37105        -0.090827      0.167556      0.163680
O	      2.18078      2.22147      2.15175         0.092457      0.005192     -0.036560
O	      4.13381      4.19350      2.07551         0.022563     -0.005392     -0.079176
O	      4.24536      2.15487      4.11863        -0.073841     -0.007163     -0.194763
O	      6.28796      4.29664      4.52814         0.007204      0.089780     -0.024946
O	      6.40069      2.01002      6.69074         0.003581     -0.179823      0.007637
O	      8.55057      4.37414      6.48034         0.131602     -0.045418      0.001859
O	      2.07285      4.27602      4.54736         0.012922     -0.043842      0.048616
O	      4.24221      6.38793      4.17750        -0.039468      0.014285     -0.331630
O	      4.07719      4.26677      6.54546        -0.024171     -0.036239      0.051458
O	      6.23043      6.56514      6.51987         0.108663     -0.040411      0.030496
O	      6.28183      4.15247      8.64640        -0.034230     -0.178928     -0.000814
O	      8.55055      6.50676      8.71954         0.126183      0.029725     -0.045721
O	      2.11755      6.29481      6.44286        -0.168069     -0.021001     -0.016720
O	      4.28380      8.65417      6.66338        -0.041530      0.081883      0.050955
O	      4.32238      6.51286      8.73579        -0.000591      0.002422     -0.025992
O	      6.24519      8.52971      8.53416        -0.007058     -0.021866     -0.047452
O	      6.31663      6.44196     11.04153         0.003105      0.005441      0.254058
O	      8.34568      8.66023     10.78083         0.132045      0.007314     -0.015247
