# total energy = -248.04335821 eV
 
CRYSTAL
PRIMVEC
0.033449 6.340468 6.413566 
6.294952 0.004836 6.442348 
4.207456 4.256304 -0.007505 
PRIMCOORD
36 1
Li	      2.19777      8.44475      6.45511        -0.005104     -0.001999      0.011288
Li	      2.35313      6.29650      8.48145        -0.048361      0.042866     -0.036316
Li	      4.24541      8.32159      8.49216         0.033665      0.041134     -0.043712
Li	      4.22059      6.34406     10.52340         0.007539      0.003110     -0.134253
Li	      4.17092      4.26843      4.42859         0.022208      0.025387      0.083376
Li	      4.14923      2.21657      6.45141         0.026295      0.025472      0.010101
Li	      2.27498      4.24402      6.55297        -0.051865     -0.001595      0.053228
Li	      4.11750      6.26198      6.57233        -0.003440     -0.010921     -0.019465
Li	      4.08718      4.39891      8.42832         0.064910      0.040636     -0.023519
Sc	      6.31499      8.50281     10.54773        -0.065915      0.108290     -0.103470
Sc	      6.20717      4.27020      6.47015        -0.061757     -0.024644     -0.006742
Ti	      0.07899      0.03622      0.09072         0.286591     -0.097584      0.134488
Ti	      2.28089      2.07863      4.30184         0.323440     -0.106128      0.047467
Ti	     10.40158      8.44779     10.78882        -0.248261     -0.097856      0.258677
V	     10.49693      6.35754      8.55319        -0.011777     -0.027613     -0.001139
Fe	      2.14980      4.22281      2.11086         0.050846     -0.084932      0.117345
Fe	      6.22379      6.42188      8.48945         0.152961      0.046443     -0.061926
Ni	      2.13684      6.28895      4.31136         0.010681      0.046248      0.036288
O	      2.10449      2.17988      2.30700         0.013210      0.018787      0.096764
O	      4.16654      4.24587      2.02202        -0.006303     -0.024420     -0.237861
O	      4.14077      2.14574      4.26917        -0.339312      0.004423      0.051951
O	      6.33415      4.33085      4.33488         0.008258      0.106023      0.054076
O	      6.30495      2.06587      6.40059        -0.008504     -0.109329     -0.058499
O	      8.47619      4.23029      6.57680         0.028848     -0.018163     -0.040961
O	      2.01666      4.14563      4.21459        -0.055607     -0.080360     -0.001946
O	      4.24994      6.48444      4.25259         0.067419      0.123704      0.045495
O	      4.26281      4.22061      6.43000         0.109862      0.010707     -0.014731
O	      6.33703      6.34720      6.22505         0.042542     -0.032055     -0.214225
O	      6.37226      4.21357      8.65090         0.011388     -0.032901      0.094516
O	      8.36161      6.22171      8.69108         0.007994     -0.026674     -0.060945
O	      1.99743      6.36729      6.37540        -0.385898      0.002630      0.039371
O	      4.21565      8.62140      6.22868        -0.022271      0.090503     -0.311042
O	      4.29396      6.37062      8.52752        -0.155461     -0.018640      0.002414
O	      6.34117      8.51677      8.60820         0.015558      0.093328      0.084517
O	      6.31729      6.30441     10.81493        -0.068780     -0.092132      0.112884
O	      8.49818      8.42852     10.69565         0.254400      0.058257      0.036509
