# total energy = -239.51120273 eV
 
CRYSTAL
PRIMVEC
-0.000151 6.237711 6.373044 
6.383862 0.001102 6.370966 
4.271530 4.172536 -0.014354 
PRIMCOORD
36 1
Li	      6.42327      0.08833      6.35564         0.074698      0.091250     -0.028447
Li	      8.46935      8.28207     12.71004        -0.049606     -0.010035      0.002230
Li	      6.38899      2.04502      4.37139         0.005988      0.017198      0.020956
Li	      6.35350      2.09113      8.45331         0.002064     -0.002307     -0.079286
Li	      2.17739      2.09642      4.18155        -0.088757     -0.012964     -0.006764
Li	      4.25631      4.05922      4.16863         0.009647      0.098670     -0.036019
Li	      4.40692      2.10245      6.29365        -0.019731     -0.023445     -0.023364
Li	     10.57266      8.29820     10.62421         0.001552     -0.118869      0.038877
Li	      8.51659      6.36985     10.58639         0.100289     -0.046028      0.056077
Sc	      8.58205      4.20719      4.38538        -0.001346     -0.046214      0.135807
Sc	      2.10436      4.14250      6.17356         0.103614     -0.042495     -0.221773
Sc	      6.43079      6.24672      8.59771         0.026507     -0.057851     -0.003212
Mn	      6.34579      4.09863      6.34694         0.002962      0.118049     -0.011282
V	      2.16086      4.14662      2.16973        -0.023427     -0.008684      0.095335
V	      6.28390      4.26843      2.14388         0.043492     -0.021409      0.009335
Cr	      8.55777      8.28579      8.54635         0.071318     -0.038942      0.087492
Co	      4.25128      6.27236      6.14106        -0.003530      0.103789      0.877102
Ni	      4.23453      2.11375      2.14659         0.106554     -0.044992     -0.024485
O	      2.15978      2.08281      2.11912        -0.093421     -0.068722     -0.046123
O	      4.33827      4.17277      2.08384        -0.005620      0.076562     -0.067069
O	      4.25086      2.04057      4.17474         0.032615     -0.015027      0.034666
O	      6.42366      4.17682      3.98127        -0.005999     -0.023432     -0.104405
O	      6.37282      2.25100      6.33419         0.035398      0.002613      0.086404
O	      8.38169      4.17425      6.47853         0.016535      0.010149     -0.090078
O	      2.14902      4.15441      4.15516         0.004179     -0.033048      0.007524
O	      4.22189      6.21373      4.38452         0.100275      0.000505      0.096128
O	      4.30382      4.17432      6.48712         0.061818      0.156744     -0.234719
O	      6.31168      6.16393      6.40442         0.163831     -0.084639     -0.055654
O	      6.36035      4.16842      8.52883        -0.063126      0.003587      0.002108
O	      8.48511      6.22035      8.50799         0.016356      0.083033      0.009643
O	      2.20089      6.22334      6.60373        -0.198748      0.014417      0.043619
O	      4.36247      8.26386      6.46245        -0.222635     -0.239651     -0.303947
O	      4.22744      6.17186      8.52656        -0.071973      0.014217     -0.263751
O	      6.49682      8.37228      8.39856        -0.027090      0.076798      0.047388
O	      6.33906      6.25310     10.61314        -0.036380      0.003280     -0.011964
O	      8.52468      8.35231     10.49665        -0.068303      0.067892     -0.038352
