# total energy = -242.65884922 eV
 
CRYSTAL
PRIMVEC
0.019160 6.593474 6.298445 
6.219145 0.024981 6.292262 
4.148238 4.392777 0.014348 
PRIMCOORD
36 1
Li	      2.13847      2.12019      0.14693        -0.043288     -0.044569     -0.026486
Li	      2.11881      0.14575      2.14546         0.014746      0.010063     -0.013745
Li	      4.02693      2.26468      2.09538         0.071300      0.022172      0.009806
Li	      4.14685      6.66417     10.41451         0.008371     -0.033846     -0.000165
Li	      2.18002      4.12216      2.15121        -0.049090     -0.010456     -0.015100
Li	      2.23265      2.19231      4.12953        -0.000148     -0.001766     -0.000653
Li	      4.13505      2.28734      6.21210        -0.012449      0.022611      0.021983
Li	      6.20847      8.67007      6.32060         0.015615     -0.038195      0.017516
Li	      4.16982      6.57387      6.31985        -0.025183     -0.069135      0.011915
Sc	      0.08539      2.12268      2.05461        -0.053129     -0.023551     -0.099638
Sc	      6.35976      4.58499      6.25680         0.002142      0.062963     -0.029116
Sc	      4.21857      8.71688      4.28717        -0.033961      0.059817     -0.018446
Mn	      6.20009      2.26512      4.20010         0.033977     -0.045879      0.069817
V	      4.15666     10.89851      6.34797         0.041714     -0.043932      0.003232
V	      4.05908      4.50541      8.33420         0.001887      0.020721      0.007629
Cr	      4.10951      4.39574      4.22651         0.028683      0.022370      0.010902
Co	      8.24715      6.59568     10.51700         0.002964     -0.033629      0.032931
Co	      6.24057      6.62699      8.35265        -0.045446      0.087264     -0.007904
O	      2.03438      2.17062      2.11710         0.055159      0.017201     -0.021332
O	      4.12589      4.44816      2.10061        -0.010836     -0.111271     -0.076171
O	      4.28644      2.39776      4.17284        -0.064663      0.025691      0.005601
O	      6.14764      4.45423      4.24200        -0.001153      0.048423      0.021487
O	      6.23916      2.15941      6.21765         0.005565     -0.029559      0.021097
O	      8.45813      4.47214      6.30417         0.062542     -0.014811     -0.026309
O	      2.10236      4.34767      4.19769         0.011727      0.062474     -0.019996
O	      4.03137      6.54631      4.21887         0.037924     -0.001799      0.010574
O	      4.19685      4.41664      6.31096        -0.024879      0.021950     -0.027140
O	      6.26825      6.56441      6.35735        -0.010825     -0.073915     -0.010187
O	      6.16059      4.33668      8.39307         0.032356      0.009979      0.009479
O	      8.28536      6.89295      8.48776         0.023778      0.027449     -0.044158
O	      1.84991      6.60028      6.23668        -0.083609      0.066414      0.012104
O	      4.13244      8.93019      6.30321         0.007395      0.173240      0.113195
O	      4.18117      6.33350      8.37197         0.005056     -0.054355      0.038408
O	      6.29055      8.77443      8.51545        -0.057745     -0.052435     -0.090808
O	      6.23168      6.51893     10.54382         0.004677     -0.027848      0.085907
O	      8.22193      8.85273     10.38268         0.048826     -0.049850      0.023771
