# total energy = -238.39718787 eV
 
CRYSTAL
PRIMVEC
-0.001916 6.307609 6.438127 
6.331840 0.011008 6.425091 
4.234564 4.209909 -0.006119 
PRIMCOORD
36 1
Li	      8.42206      2.12122      6.40800         0.011392      0.031243      0.027752
Li	      6.30337      2.13101      4.27468         0.001079     -0.033439     -0.006441
Li	      6.24837      2.21963      8.55526        -0.006172      0.031916     -0.006387
Li	      6.15011      4.23959      6.53841         0.128393     -0.053461      0.012073
Li	      6.35734      4.23324     10.69348         0.007823      0.025758      0.032856
Li	      2.26013      4.15624      6.47731        -0.034600     -0.002875      0.021106
Li	      4.33313      6.12897      6.38685        -0.039994      0.019181      0.022463
Li	      4.29616      4.18463      8.37732        -0.021779     -0.047175      0.035861
Li	      6.38151      6.25902      8.49317        -0.008818      0.040009     -0.002110
Sc	      4.34186      8.35498      8.50408        -0.009037     -0.034914     -0.021672
Sc	      8.27152      4.25479      8.51708         0.020430      0.053790     -0.037498
Sc	      2.20385      6.35527      4.29819        -0.037513      0.042347     -0.025569
Mn	      6.28931      6.34330      4.35883        -0.008507     -0.009258     -0.113857
V	      6.35943      0.08946      6.40345        -0.012717     -0.092908      0.028419
V	      8.45623     10.38457     10.72155         0.038426      0.135830     -0.012264
Cr	      2.13005      6.28437      8.56417         0.002649      0.022774     -0.038287
Cu	      8.39798      6.40169      6.47304        -0.010421     -0.054048      0.097222
Ni	      4.26880      4.20256      4.35918         0.006238     -0.070475     -0.151572
O	      2.13356      2.06633      2.31656         0.008010     -0.020767      0.008484
O	      4.31002      4.18548      2.11224         0.016282     -0.034346     -0.029029
O	      4.17049      1.92076      4.19280        -0.022103     -0.018236     -0.186944
O	      6.41771      4.16762      4.15351         0.089609     -0.009228     -0.036416
O	      6.26685      1.91457      6.47800         0.012364      0.089219     -0.000929
O	      8.51130      4.29615      6.33441        -0.049746     -0.153799     -0.039729
O	      2.18438      4.25917      4.21071        -0.096518      0.060497      0.026726
O	      4.24930      6.29617      4.36695         0.045870      0.070259     -0.005279
O	      4.23998      4.11037      6.33233         0.092882      0.188005      0.124379
O	      6.36901      6.33608      6.23449        -0.082537     -0.109878      0.064272
O	      6.36045      4.22646      8.53091        -0.049031      0.019957      0.040202
O	      8.41653      6.29714      8.72364         0.030053      0.024085      0.165948
O	      2.01096      6.38264      6.49505         0.039445      0.022768     -0.008324
O	      4.15029      8.68826      6.49578        -0.020499     -0.003526     -0.010889
O	      4.16265      6.28875      8.69728        -0.030856     -0.012078      0.001656
O	      6.33033      8.51155      8.54762         0.004142     -0.004126     -0.027090
O	      6.26236      6.33922     10.86212        -0.017774      0.037003      0.036146
O	      8.45521      8.58936     10.79869         0.003538     -0.150105      0.014719
