# total energy = -238.61188657 eV
 
CRYSTAL
PRIMVEC
-0.004946 6.559886 6.343552 
6.315244 0.053063 6.288182 
4.213277 4.338026 0.031116 
PRIMCOORD
36 1
Li	      2.11418      8.68117      6.30920        -0.021142     -0.009383      0.032621
Li	      6.39311      8.66298     10.47634        -0.024062      0.041688      0.069977
Li	      8.30396      6.57443      6.40783         0.017016      0.024231      0.010464
Li	      6.31847      4.47491      6.38404        -0.043656     -0.020480      0.048448
Li	      0.04758      4.43141      4.27708         0.025150      0.005519      0.003602
Li	      8.27774      6.64151     10.51481         0.026859     -0.036601     -0.018812
Li	      6.32029      8.68701      6.40696        -0.016168     -0.028853     -0.055131
Li	      8.28194      8.66630      8.40670         0.057762     -0.038503     -0.013654
Li	      6.42466      6.65843      8.43622         0.025065     -0.036449     -0.047263
Sc	      4.31016      8.75949      8.37584        -0.150816      0.060036     -0.044100
Sc	      4.22383      4.28747      4.34347        -0.003398      0.003108     -0.072759
Sc	      4.19544      6.52748      6.38472         0.097905     -0.029461     -0.025358
Mn	      8.34702      4.46582      8.37367         0.005581      0.089879      0.006464
V	      8.51024     10.75665     10.59738        -0.073518      0.169521      0.046888
V	      6.22728      2.35588      8.26331        -0.005636     -0.086547      0.182151
Cr	      6.31055      6.51184      4.27654        -0.000575      0.030107     -0.134349
Cu	      6.37189      6.58725     12.53699        -0.005476      0.082230      0.133025
Cu	      2.12744      6.55611      8.39011         0.039060     -0.070453     -0.093989
O	      2.01823      2.11784      2.19219         0.081767     -0.050369      0.059128
O	      4.00432      4.42269      2.13330        -0.182704     -0.030359     -0.040600
O	      4.13337      2.15381      4.18765         0.013154      0.012647      0.003307
O	      6.39410      4.46153      4.15884         0.002634     -0.020674      0.128781
O	      6.34336      2.31292      6.53291         0.001584      0.095347     -0.245924
O	      8.56370      4.40675      6.26016        -0.067807     -0.004075     -0.089578
O	      2.12389      4.20028      4.10938         0.082405     -0.052513      0.061488
O	      4.27095      6.42759      4.18414         0.044410     -0.081681      0.035103
O	      4.19119      4.43964      6.29503        -0.031659      0.042815      0.028680
O	      6.27119      6.52459      6.25053        -0.033387     -0.002319      0.049797
O	      6.44386      4.26631      8.42253         0.009575      0.046071      0.020337
O	      8.52700      6.60589      8.49787        -0.105411      0.074663      0.013116
O	      2.02913      6.57088      6.37362         0.013771      0.000432     -0.013555
O	      4.17123      8.58607      6.38871         0.002968     -0.188588     -0.057588
O	      4.35869      6.67621      8.52434         0.118164      0.036897      0.067539
O	      6.28639      8.90601      8.47999         0.062387      0.008030     -0.020949
O	      6.20976      6.63782     10.56362         0.034081      0.035924     -0.068855
O	      8.38528      9.01631     10.54971         0.004117     -0.071835      0.041546
