# total energy = -245.01237197 eV
 
CRYSTAL
PRIMVEC
-0.025531 6.331537 6.399254 
6.431125 -0.024240 6.398837 
4.298725 4.232625 -0.027974 
PRIMCOORD
36 1
Li	      4.34365     10.52411      6.47745         0.118035     -0.061878     -0.021991
Li	      6.40355      4.22007      2.13812        -0.086765      0.051595     -0.030410
Li	      4.20326      2.17311      2.19422        -0.108140      0.005678     -0.054164
Li	      4.17712      0.06236      4.22452        -0.017290      0.008990     -0.010093
Li	      2.22099      4.17263      2.09605         0.039526      0.054115      0.114525
Li	      6.52928      6.26945      4.26821        -0.103396      0.040801      0.016877
Li	      8.42788      6.22402      6.31107        -0.086699     -0.081365     -0.007242
Li	      6.50023      4.23390      6.24183         0.008262      0.019995      0.054910
Li	      6.40518      8.45776      6.38921        -0.037430      0.145791     -0.183167
Sc	      6.45442      2.04717      8.45067        -0.077024     -0.289469      0.440074
Sc	      4.21993      4.07053      4.27900        -0.440730      0.465872     -0.252857
Sc	      4.33071      6.36735      6.43682        -0.547477      0.349591     -0.605355
Mn	      6.35605      2.07092      4.29013         0.079086     -0.264534      0.143607
V	      8.59418      2.26161      6.42467         0.392698     -0.689177     -0.188389
V	      6.45613      6.33039      8.46091         0.083227     -0.330858      0.078915
Cr	      6.45328      4.26446     10.68039         0.311607     -0.296409      0.355830
Fe	      4.20617      4.23026      8.45510         0.331768     -0.112032      0.214454
Co	      2.12641      6.32909      4.27277         0.399281      0.235333      0.066275
O	      2.10348      2.11932      1.95997        -0.044999      0.002390     -0.010523
O	      4.25701      4.28613      2.20823         0.054079      0.133516      0.034447
O	      4.24792      2.07804      4.28912         0.076784     -0.016201     -0.011499
O	      6.33958      3.99100      4.26765         0.042372     -0.232461     -0.010297
O	      6.59476      2.06931      6.37226        -0.073791      0.102751     -0.350594
O	      8.60025      4.03218      6.35459        -0.088279      0.129549     -0.018451
O	      2.05779      4.28225      4.29692        -0.107725      0.186495     -0.024538
O	      4.34188      6.40748      4.23426         0.231592      0.085119     -0.072696
O	      4.22217      4.27018      6.42523         0.041627     -0.034499      0.316287
O	      6.40120      6.29615      6.49001         0.110547      0.023223      0.105448
O	      6.35211      4.24828      8.65863        -0.310909      0.102735     -0.201714
O	      8.57684      6.39223      8.53479         0.024041      0.385122     -0.087762
O	      2.19189      6.53104      6.29983         0.139992      0.213364      0.068665
O	      4.20508      8.49468      6.27617        -0.119634     -0.154888      0.028049
O	      4.34429      6.25486      8.47464        -0.118036     -0.280262      0.241618
O	      6.50366      8.35530      8.59585         0.242595     -0.066611      0.150083
O	      6.45728      6.33856     10.54835        -0.278948      0.385712     -0.090524
O	      8.67255      8.41563     10.67197        -0.079846     -0.217092     -0.197798
