# total energy = -246.31813777 eV
 
CRYSTAL
PRIMVEC
0.034997 6.381689 6.528444 
6.165728 0.039875 6.522849 
4.135020 4.275333 0.002272 
PRIMCOORD
36 1
Li	      0.07466      6.35366      6.47563         0.007243      0.013409     -0.004052
Li	      4.22923      8.48806      8.72374         0.006043     -0.089197      0.047140
Li	      6.12287      2.16088      4.37891        -0.047944      0.054037      0.140014
Li	      4.15814      4.19458      4.40358         0.001886     -0.067806      0.032991
Li	      4.11139      2.21380      6.42501         0.044813     -0.011871     -0.086125
Li	      4.15847      8.53988      4.42410         0.038746     -0.030519      0.067192
Li	      4.13950      6.41782      6.55877        -0.032931     -0.001369      0.038476
Li	      4.08552      4.32147      8.66674        -0.035599      0.040887     -0.059188
Li	      6.20170      6.43592      8.68436        -0.001151     -0.018949     -0.027744
Sc	      4.25434      6.44357     10.83981        -0.126788     -0.047615      0.032464
Sc	     10.26677      6.47334      8.72716        -0.024807      0.061819     -0.088279
Sc	      2.12032      4.25365      2.23429         0.023925     -0.003391     -0.060470
Mn	      6.21951     10.60565      8.73421        -0.009787     -0.024782     -0.013513
V	      6.10230      4.34898      6.49232         0.078562     -0.091382     -0.024621
V	      6.21094      8.47306      6.56768        -0.118669      0.144050     -0.053258
Cr	      2.17600      8.49267      6.49607         0.010614     -0.020494      0.087128
Fe	      6.20665      6.43737      4.44051        -0.186316     -0.021170     -0.065225
Fe	      8.19650      6.48905     10.90064         0.258819     -0.017934      0.029491
O	      2.09391      2.06753      2.04889         0.067334     -0.030319     -0.041936
O	      4.20122      4.32086      2.14433         0.066672     -0.032907      0.002540
O	      4.06041      2.08727      4.36493         0.241248     -0.040782     -0.011358
O	      6.17612      4.27607      4.47692         0.001385     -0.099215      0.018069
O	      6.27264      2.32106      6.57597        -0.022387      0.013358      0.001211
O	      8.24308      4.18832      6.55379         0.031231     -0.014674     -0.008493
O	      2.07447      4.34050      4.37280         0.021646      0.068050     -0.011931
O	      4.14437      6.44511      4.25596        -0.122510      0.053865     -0.062952
O	      3.95336      4.25780      6.50248        -0.030833      0.019765      0.005520
O	      6.16905      6.44578      6.58498        -0.003405      0.039194      0.085682
O	      6.20825      4.26706      8.53474        -0.024706      0.027118      0.006820
O	      8.25341      6.35076      8.80320        -0.088559      0.011171      0.037362
O	      2.09731      6.40767      6.43381         0.036395     -0.004871     -0.026482
O	      4.29276      8.53036      6.50659         0.045435     -0.021490     -0.025366
O	      3.98321      6.34316      8.78834         0.033894      0.017202      0.057749
O	      6.20010      8.64897      8.50515        -0.017968      0.004267     -0.007779
O	      6.26137      6.45045     10.84222        -0.121511      0.034317     -0.006583
O	      8.29536      8.51318     11.03073        -0.000022      0.088230     -0.004494
