# total energy = -238.71461873 eV
 
CRYSTAL
PRIMVEC
0.038998 6.282482 6.226178 
6.570526 0.020610 6.243786 
4.386881 4.206659 0.007174 
PRIMCOORD
36 1
Li	     10.85445     10.39839     12.42048         0.004201      0.053727     -0.021309
Li	      8.92228      8.59558     12.38293         0.029879     -0.047617      0.017317
Li	      8.91232     10.37838     10.42871         0.010802      0.019434     -0.041022
Li	      8.62395      4.17758      8.28421        -0.056858     -0.018513      0.037293
Li	      6.69277      4.19960      6.34575         0.047614      0.001760     -0.046997
Li	     10.86120      8.48796     10.46888        -0.023078     -0.063732     -0.029849
Li	      6.48549      8.37065      6.24972        -0.072872     -0.002819     -0.020770
Li	      4.45574      6.36866      6.27515        -0.026171      0.002358     -0.043642
Li	      4.51804      4.30300      8.33724         0.052248     -0.023904      0.007583
Sc	      4.41286      8.36389      8.15309        -0.080263      0.141316      0.009594
Sc	      6.71626      8.43066     10.42135         0.033615      0.041162      0.066430
Sc	      8.76307      6.17413      6.34441        -0.036664     -0.048213     -0.028401
Mn	      6.54832      6.33384      4.22555         0.072230      0.063748     -0.141560
V	      4.36791      4.24889      4.26803         0.027749     -0.179277     -0.280609
V	      2.18999      6.31361      4.29073        -0.051091     -0.002322      0.127363
Cr	      6.58651      2.17889      8.29004         0.079095     -0.116427      0.023993
Ni	      2.27538      6.26614      8.21386        -0.051119      0.036269     -0.075235
Ni	      6.49418      6.18320      8.29446         0.062830      0.072901     -0.064448
O	      2.11993      2.08545      2.23443        -0.007705      0.069833     -0.048903
O	      4.50567      4.26845      2.20792        -0.050652      0.014214      0.090667
O	      4.44115      2.23255      4.17044         0.072552      0.070415      0.027834
O	      6.44680      4.31889      4.12421        -0.136489     -0.055381      0.087966
O	      6.50310      2.11802      6.28063        -0.033525      0.010229     -0.001021
O	      8.78129      4.24656      6.18843        -0.021452      0.032896      0.035839
O	      2.39711      4.16854      4.13206         0.155136      0.056545      0.070015
O	      4.27960      6.23814      4.08954        -0.053059     -0.046434      0.041762
O	      4.42280      4.20647      6.03232         0.013056      0.053373      0.189794
O	      6.63166      6.31226      6.14965         0.073029      0.002870      0.148483
O	      6.58293      4.15139      8.33919        -0.020461      0.052569     -0.020948
O	      8.89126      6.28783      8.42916        -0.022066      0.013457      0.016084
O	      2.24442      6.23609      6.06601         0.038858      0.008933     -0.166502
O	      4.39286      8.40292      6.22768        -0.022739     -0.029640      0.053687
O	      4.38678      6.32032      8.33952         0.073033     -0.073797     -0.011503
O	      6.52608      8.38989      8.32891        -0.030387     -0.104393     -0.001394
O	      6.79471      6.33985     10.32165        -0.011180     -0.048038      0.030278
O	      8.74477      8.27745     10.40896        -0.038097      0.042501     -0.037868
