# total energy = -245.32169139 eV
 
CRYSTAL
PRIMVEC
0.049465 6.410114 6.433731 
6.420824 0.027898 6.454486 
4.283980 4.291118 0.014915 
PRIMCOORD
36 1
Li	      8.52863      2.26375      6.53111         0.001455      0.064882     -0.029037
Li	      2.20627      0.09389      2.26721         0.011069      0.028720      0.020638
Li	      8.40489      4.40993      4.34188         0.061682     -0.004529     -0.028190
Li	      6.35632      2.24187      4.25687        -0.009345     -0.019380      0.010283
Li	      0.03931      2.19198      2.18064        -0.011888     -0.028128     -0.012674
Li	      2.30064      2.02270      4.27470        -0.036228      0.016132     -0.034642
Li	      8.44378      6.38766      6.40450         0.023952      0.002744     -0.055670
Li	      6.58696      4.36553      6.27865         0.054593      0.055792     -0.025897
Li	      6.45923      6.48548      8.55005        -0.012959     -0.033326      0.011291
Sc	      8.52077      4.30092      8.56300        -0.047215     -0.004657     -0.050191
Sc	      4.45622      4.23538      4.26604         0.120804     -0.095179      0.026456
Sc	      4.33833      6.40831      6.49515         0.070553     -0.139685      0.095560
Mn	      8.54123      8.53002      8.63782        -0.000289      0.041192      0.035111
V	      6.42954      0.23223      6.44359        -0.145723      0.355007      0.054415
V	     10.65560      8.60781     10.74786        -0.128002      0.059236     -0.045024
Cr	      4.32312      8.51323      8.62280         0.019038      0.017271      0.114702
Cr	      6.42895      8.50730      6.44771         0.121872     -0.072860      0.048713
Cu	      8.57206      6.45920     10.73045        -0.038907      0.029489     -0.057142
O	      2.26442      2.19448      2.11649         0.095932      0.063228     -0.019423
O	      4.27473      4.20490      2.09144        -0.063392     -0.072090     -0.006263
O	      4.32785      2.19047      4.17605         0.002216      0.120158     -0.156302
O	      6.38401      4.27593      4.35380        -0.103641      0.011881     -0.090269
O	      6.51197      1.96780      6.46945        -0.000497     -0.268682     -0.020481
O	      8.73430      4.35133      6.50734         0.080817      0.010298      0.076874
O	      1.98353      4.11622      4.35096        -0.071825      0.034580      0.046793
O	      4.19054      6.47288      4.33664         0.131931      0.055073      0.051756
O	      4.17890      4.30804      6.37578        -0.076486      0.063128     -0.034029
O	      6.37750      6.49280      6.44838        -0.094040      0.062012      0.035751
O	      6.46844      4.29167      8.77168         0.032953      0.004730      0.155703
O	      8.58800      6.40800      8.72737        -0.009575     -0.016694     -0.004908
O	      2.09972      6.28703      6.34908        -0.034842     -0.066303      0.000427
O	      4.38845      8.59230      6.44474         0.037959     -0.051539      0.010163
O	      4.27852      6.49195      8.53579         0.056420      0.009860     -0.080244
O	      6.38214      8.55343      8.45551        -0.090877     -0.042047     -0.065100
O	      6.57229      6.31580     10.92527        -0.097356     -0.095072      0.048003
O	      8.86434      8.73326     10.82951         0.149840     -0.095245     -0.027155
