# total energy = -246.38285645 eV
 
CRYSTAL
PRIMVEC
0.039847 6.424894 6.301320 
6.476837 0.031239 6.309872 
4.315246 4.286374 0.022935 
PRIMCOORD
36 1
Li	      2.24360      8.50636      6.33000         0.014981     -0.028752     -0.020146
Li	      2.21371      0.11682      2.09801         0.034431      0.042422     -0.008870
Li	      4.21051      2.11252      2.12681        -0.021416      0.001710      0.005070
Li	      6.39508      6.38397      4.23877        -0.085535      0.011325      0.020736
Li	      4.41455      4.33871      4.31360         0.028313     -0.023892     -0.019716
Li	      8.59994      6.45311      6.29841         0.003894      0.002471     -0.017223
Li	      6.38811      4.46576      6.21652        -0.078965      0.082866     -0.031610
Li	      4.37745      8.45942      4.27250         0.053735     -0.011192      0.024951
Li	      4.38973      6.38880      6.20274         0.029197     -0.022857     -0.012293
Sc	      0.11733      2.13937      2.16847         0.031466     -0.047803     -0.003875
Sc	      2.22595      4.25356      6.16935         0.010370     -0.002577      0.041255
Sc	      4.37471      4.36304      8.35779        -0.029626      0.046185      0.056179
Mn	      8.53110      4.33580      4.30551        -0.014803     -0.023651      0.019243
V	      4.34928     10.63227      6.33391         0.008340     -0.113668      0.028159
V	      6.36813      2.23796      4.27083         0.104047      0.051666     -0.027960
Cr	      2.19052      4.26115      2.13003        -0.000972     -0.024745     -0.005964
Cr	      6.51222      6.44010      8.39291        -0.022242      0.013200      0.010071
Ni	      2.22753      6.42455      4.26722        -0.023099      0.040318      0.026819
O	      2.13210      2.24821      2.13806        -0.037130      0.030691     -0.004615
O	      4.21173      4.34309      1.99016        -0.026159      0.033749      0.012489
O	      4.56966      2.15341      4.19837        -0.037915      0.027844      0.004607
O	      6.46105      4.17029      4.22868        -0.039759     -0.001922      0.000469
O	      6.48376      1.98604      6.25313        -0.011890     -0.009210     -0.003267
O	      8.79982      4.31401      6.41501        -0.001802     -0.003398      0.074404
O	      2.19244      4.31743      4.14475        -0.025013     -0.075670     -0.023344
O	      4.27363      6.46502      4.17872         0.100489     -0.029161     -0.043535
O	      4.27191      4.30113      6.35483        -0.010526      0.021146      0.006296
O	      6.49688      6.48265      6.41255        -0.015988      0.038345      0.010046
O	      6.54674      4.35542      8.40307         0.020606     -0.007812     -0.008422
O	      8.61354      6.40513      8.45005        -0.019447     -0.025092     -0.074029
O	      2.03755      6.38328      6.33284         0.015340     -0.002662      0.054176
O	      4.38400      8.79526      6.27388         0.009717      0.021486      0.016771
O	      4.50047      6.40487      8.43582         0.033109     -0.020716     -0.063139
O	      6.57231      8.47598      8.46267         0.030406     -0.062607      0.009153
O	      6.54537      6.53747     10.52570        -0.033407     -0.018012     -0.016684
O	      8.43959      8.53775     10.50319         0.007254      0.089975     -0.036201
