# total energy = -252.19800292 eV
 
CRYSTAL
PRIMVEC
0.020781 6.261887 6.395063 
6.460230 -0.011721 6.427545 
4.289834 4.178954 0.009365 
PRIMCOORD
36 1
Li	      2.17422      2.11868      0.02265         0.059662     -0.009873      0.044098
Li	      6.42052      2.09746      4.32721        -0.000505      0.025473     -0.030638
Li	      4.37612      6.27757      2.28715         0.048165      0.013921      0.080408
Li	      2.15090      4.14604      2.26819         0.029424      0.019235      0.008265
Li	      2.17547      2.29928      4.21359         0.026523     -0.015001     -0.006539
Li	      4.10632      4.16326      4.37431         0.032223     -0.005242     -0.019331
Li	      4.27942      2.09545      6.30143        -0.070269      0.036088     -0.087916
Li	      0.16983      4.08081      4.26019        -0.035164      0.006788     -0.020537
Li	      2.13088      4.16689      6.23529        -0.075415      0.029763      0.076533
Sc	      6.33761      4.24176      2.21301         0.052874      0.024760      0.010136
Sc	      8.64629      4.17164      4.37948        -0.067426      0.030748     -0.077208
Sc	      8.60930      8.22674      8.55141        -0.011713      0.059465     -0.051630
Mn	      4.33897      6.32167      6.23996         0.015381      0.000783      0.056290
V	      4.25109      2.13066      2.17209         0.044177     -0.054016      0.004872
V	      6.46223      4.04106      6.38637        -0.051308     -0.003414     -0.031767
Cr	      6.44824      0.02107      6.44026         0.026117      0.021930     -0.013647
Cr	      2.16629      6.20773      4.28671         0.009065     -0.024491      0.057173
Cr	      6.49505      6.20111      8.53386        -0.114993      0.028195     -0.011601
O	      2.26898      2.04567      2.17475        -0.056630      0.039677      0.001282
O	      4.32799      4.20021      2.01189         0.003746      0.073955     -0.041746
O	      4.36199      2.05470      4.14308        -0.020828     -0.046770      0.069790
O	      6.53633      4.16092      4.35183         0.010197      0.024075      0.060561
O	      6.48502      2.20687      6.43231         0.004189     -0.106458     -0.000352
O	      8.61915      4.18446      6.38571         0.060606      0.023699      0.071511
O	      2.13557      4.25542      4.31184        -0.008819     -0.010312     -0.006101
O	      4.14778      6.28040      4.23791        -0.032101     -0.023896     -0.065221
O	      4.48899      4.12742      6.43944         0.071786     -0.029721     -0.019059
O	      6.49368      6.05531      6.54455         0.035552     -0.085808      0.013237
O	      6.41580      4.20681      8.41737         0.009740     -0.039762      0.001178
O	      8.45218      6.21704      8.67894         0.027707     -0.023835     -0.036899
O	      2.05911      6.30264      6.39508        -0.113958     -0.003263     -0.029482
O	      4.31587      8.47036      6.55250        -0.026139      0.118821     -0.025545
O	      4.34794      6.24044      8.54943         0.053771     -0.030394     -0.006797
O	      6.43878      8.28045      8.50286         0.026044     -0.035643      0.004256
O	      6.50239      6.25222     10.70411         0.037179     -0.011787      0.020375
O	      8.61122      8.32223     10.60379         0.001138     -0.017690      0.002052
