# total energy = -247.60950032 eV
 
CRYSTAL
PRIMVEC
0.015128 6.325931 6.479051 
6.313356 -0.019360 6.513784 
4.189700 4.221117 0.006199 
PRIMCOORD
36 1
Li	      2.12404      2.07198      0.12306        -0.000685     -0.014667      0.096776
Li	      4.10353      2.13320      2.21415        -0.044997      0.029685      0.029306
Li	      4.28116      6.26696      2.28130        -0.011579     -0.006533      0.019504
Li	      2.11068      4.14686      2.21710        -0.020684     -0.040331     -0.025021
Li	      2.09724      2.12178      4.20270        -0.045125     -0.004225     -0.006405
Li	      4.15029      4.21512      4.23361        -0.010581     -0.003493     -0.009793
Li	      2.16975      6.30656      4.28490        -0.020035     -0.018338     -0.044797
Li	      6.28960      8.44641      6.51446        -0.005788     -0.016889     -0.029623
Li	      4.25173      4.19293      8.65622         0.031516     -0.011294     -0.001019
Sc	      4.23646     10.47442      6.58372         0.042672     -0.057600      0.030194
Sc	      6.41235      8.41608     10.77394         0.095853      0.050539     -0.055730
Sc	      4.15604      6.31302      6.43032        -0.026821      0.002600     -0.062918
Mn	      2.08189      0.05528      2.19045        -0.034329     -0.030052     -0.022617
Mn	      4.21772      6.34226     10.75492         0.005539     -0.031451     -0.008175
V	      8.36147      6.38017      6.57779        -0.004485      0.043179      0.253880
V	      0.09358      4.15085      4.21355        -0.027382     -0.037305     -0.029924
Cr	      6.32646      4.18224      6.58055        -0.029245      0.042741      0.060722
Co	      6.29740      6.37421      8.65106         0.028913      0.015487     -0.052660
O	      2.11438      1.94274      2.19619         0.001279     -0.043092     -0.034505
O	      4.29268      4.18461      2.14133         0.025016     -0.027407     -0.065844
O	      4.25625      2.12330      4.63230         0.048024      0.026142     -0.022312
O	      6.29869      4.15138      4.53339        -0.015777     -0.013840      0.024334
O	      6.23878      2.12236      6.50469         0.025292      0.003408     -0.063362
O	      8.36974      4.29657      6.57299        -0.007611      0.028395      0.020744
O	      1.87731      4.23066      4.23396        -0.011041     -0.011567     -0.005995
O	      4.15673      6.43548      4.33288         0.057768      0.018359      0.051868
O	      4.28438      4.17242      6.50145         0.030912      0.055100      0.010716
O	      6.33526      6.23884      6.50411        -0.018929     -0.013773     -0.026934
O	      6.30130      4.32317      8.67013         0.006363     -0.126106      0.005093
O	      8.37607      6.36579      8.40989        -0.084447     -0.006538     -0.158583
O	      2.10428      6.27510      6.46918        -0.014508      0.017858     -0.017093
O	      4.19339      8.41853      6.29015         0.014556     -0.002127     -0.007185
O	      4.13766      6.37385      8.58429         0.035272      0.004416     -0.065114
O	      6.28895      8.49094      8.73457        -0.021350      0.113899      0.098278
O	      6.36497      6.28817     10.85887         0.041185      0.044571      0.115460
O	      8.54016      8.42165     10.78400        -0.034760      0.020249     -0.001266
