# total energy = -244.11151001 eV
 
CRYSTAL
PRIMVEC
0.013397 6.381761 6.527351 
6.337028 0.014749 6.525601 
4.220659 4.249193 0.013724 
PRIMCOORD
36 1
Li	      4.38766      8.39692      8.68323        -0.001343      0.067197     -0.033168
Li	      4.45358      6.31410     10.75547        -0.055340      0.017727     -0.109922
Li	      6.42254      8.31590     10.74291        -0.012120      0.031395     -0.027072
Li	      6.27374      4.30568      6.64888        -0.046295      0.011029      0.072871
Li	      6.15727      4.40815     10.77005         0.039182     -0.028008     -0.023771
Li	      8.36713      6.54690     10.81043         0.107443     -0.023718     -0.007894
Li	      6.32805      8.46721      6.68203         0.014983      0.012724      0.051540
Li	      8.49701      8.45173      8.90532        -0.023274      0.016606     -0.017934
Li	      6.27586      6.55246      8.80251         0.016214      0.052039      0.029112
Sc	      8.40117      8.58824     12.84288        -0.002256     -0.002327      0.021680
Sc	      6.40397     10.46933      8.73409         0.105714     -0.114867      0.014112
Sc	      8.33803      4.34046      8.73076         0.032427     -0.037183      0.068800
Mn	      6.39139      6.34396     12.87654         0.010066     -0.100670     -0.127498
Mn	      4.29096      6.41573      6.61379         0.012932      0.014837     -0.059396
V	      6.33518      6.38198      4.40515        -0.058278      0.048009     -0.076980
V	      4.23271      4.22844      4.46343         0.033921      0.066323      0.006585
Cr	      8.44910      6.36506      6.53230         0.051652      0.078415     -0.067318
Cu	     10.52132      6.44885      8.73447        -0.039356      0.122508      0.055722
O	      2.02466      2.16177      2.31346         0.065307      0.027238     -0.028257
O	      4.22547      4.36005      2.23508         0.007234     -0.074108     -0.045434
O	      4.17988      2.21805      4.46318        -0.191855      0.019593      0.047326
O	      6.14913      4.35736      4.30423        -0.084079     -0.062682     -0.111112
O	      6.26094      1.93733      6.41575        -0.000308     -0.048797     -0.102424
O	      8.37204      4.29988      6.60292         0.064191      0.050529      0.079588
O	      2.34378      4.20360      4.30406        -0.034487     -0.027673     -0.145462
O	      4.25841      6.25249      4.63792         0.127544     -0.082581      0.047972
O	      4.27552      4.11626      6.35478        -0.024270     -0.047683      0.081969
O	      6.32810      6.39883      6.40499         0.149061     -0.017640      0.087900
O	      6.34631      4.17454      8.74587         0.029303     -0.038083     -0.021669
O	      8.50418      6.39344      8.55674        -0.123543     -0.081269      0.057810
O	      2.27533      6.45831      6.60461        -0.170352      0.051669      0.095961
O	      4.19197      8.65436      6.54362        -0.072171      0.025726     -0.080091
O	      4.24870      6.41565      8.53804        -0.074768     -0.035321      0.093623
O	      6.31932      8.53798      8.71634         0.130878      0.109613      0.025038
O	      6.40331      6.34304     10.97250        -0.003992     -0.021720      0.194579
O	      8.42806      8.56196     10.93127         0.020036      0.021153     -0.046787
