# total energy = -93.02106130 eV
 
CRYSTAL
PRIMVEC
2.149825 4.135408 2.075601 
4.201511 -2.022570 -2.068316 
0.026908 4.130648 -4.168583 
PRIMCOORD
16 1
Li	      2.12111      2.11223     -0.00177         0.014176      0.057093     -0.103636
Li	      4.23807      2.11724     -2.10945        -0.148287      0.027662      0.005072
Li	      0.02530      2.11054     -2.12186         0.114646      0.096857     -0.064214
Li	      4.36770      4.19275     -4.21385         0.049040     -0.030323      0.024653
Mn	      0.04974      0.04587     -0.04136        -0.663348     -0.668538      0.519375
Mn	      2.13942      0.05583     -2.10774         0.203996      0.580246     -0.125769
Ni	      2.13321      4.19496     -2.06176         0.142776     -0.114486      0.009349
Ni	      2.15123      2.08338     -4.17618         0.079819      0.123268      0.332308
O	      4.19011      4.19860     -1.95571        -0.195665     -0.284476      0.230804
O	      4.31826      2.13900     -4.34494         0.005544      0.167630     -0.017877
O	      4.44279      2.20658      0.01922         0.112198      0.210592     -0.320660
O	      4.08904     -0.06313     -2.09811        -0.311639      0.401715     -0.020604
O	      2.30725      4.16738      0.06854         0.217758     -0.105287     -0.304441
O	      2.18003      2.00739     -2.09695         0.114951     -0.252519     -0.087492
O	      2.19825      6.35987     -2.13569         0.106279     -0.142640     -0.103223
O	      2.02052      4.19863     -4.26531         0.157758     -0.066794      0.026354
