# total energy = -251.56340452 eV
 
CRYSTAL
PRIMVEC
-0.046968 6.462729 6.276235 
6.495086 -0.010684 6.240502 
4.315109 4.269352 0.008112 
PRIMCOORD
36 1
Li	      4.33628     10.65332      6.31683        -0.014737     -0.038430      0.009064
Li	      6.34189     10.60087      8.32832        -0.011386     -0.042888      0.032391
Li	      4.45815      8.61839      8.27317         0.014692      0.011127     -0.007604
Li	      4.31453      2.35066      6.30654        -0.061033      0.028012      0.022318
Li	      6.36851      4.21540      6.31949        -0.033704      0.051533      0.015023
Li	     10.71086      8.60982     10.41288        -0.072171     -0.056271     -0.013039
Li	      6.46250      8.61853      6.37494         0.000830     -0.040945      0.029074
Li	      4.32132      4.23887      8.27776         0.013436      0.008455      0.050994
Li	      6.40973      6.53823      8.39081        -0.028890      0.058405     -0.011519
Sc	      4.32430      6.44347     10.39109         0.030024     -0.089732     -0.172070
Sc	      8.57986      4.35249      8.21724        -0.063981     -0.101952      0.118477
Sc	      4.22960      6.40811      6.41291         0.290250     -0.084064     -0.150491
Mn	      6.44973      8.58285     10.42130         0.070768      0.024797     -0.059356
Mn	      8.49677      6.41406     10.42830         0.064435      0.078855     -0.018895
V	      2.17483      8.57440      6.32316        -0.142345      0.059582     -0.041419
V	      6.49972      6.41433      4.25160        -0.117254      0.079465     -0.082607
Cr	      6.46908      2.15627      8.26817         0.025628      0.069228      0.166775
Cr	      4.32489      4.25893      4.17249        -0.033078      0.070391      0.047716
O	      2.03952      2.17534      2.15221        -0.060849     -0.032582      0.359191
O	      4.25639      4.39088      2.15670         0.015137     -0.057907     -0.087660
O	      4.17607      2.19547      4.16056        -0.004465     -0.006407      0.007442
O	      6.42337      4.34139      4.16092        -0.033527     -0.082784     -0.002925
O	      6.62403      2.14338      6.20752         0.111223     -0.021137      0.018430
O	      8.66822      4.19555      6.21579         0.024984     -0.357349     -0.037737
O	      2.27637      4.15306      4.14078         0.096903      0.028648     -0.019624
O	      4.42829      6.30863      4.10958         0.035583     -0.094377     -0.034679
O	      4.29656      4.33431      6.16436        -0.009097      0.000518     -0.058531
O	      6.39931      6.44724      6.03633         0.011975     -0.013081      0.037462
O	      6.54254      4.15683      8.35749         0.037132      0.062015     -0.053895
O	      8.75683      6.40274      8.32353         0.001597      0.006217     -0.032861
O	      2.17190      6.46726      6.27437        -0.068661      0.439258      0.093142
O	      4.15957      8.51782      6.27730        -0.050784     -0.061750      0.082768
O	      4.34496      6.42351      8.37035         0.004942      0.016515      0.069780
O	      6.43450      8.59629      8.56041         0.002282      0.023508      0.016217
O	      6.38473      6.57222     10.42886        -0.067774     -0.034097      0.060655
O	      8.59412      8.62639     10.53650         0.021914      0.099224     -0.352007
