# total energy = -250.26844071 eV
 
CRYSTAL
PRIMVEC
0.003862 6.200064 6.498604 
6.438786 0.008292 6.494592 
4.322430 4.161154 -0.024732 
PRIMCOORD
36 1
Li	      2.19566      8.21432      6.51724        -0.020070      0.007863      0.009844
Li	      4.24418      2.10955      2.13752        -0.002177     -0.031427      0.005708
Li	      2.18375      4.10738      2.30204        -0.017368      0.009021     -0.030083
Li	      2.21857      2.24608      4.27358         0.082825     -0.034432     -0.018065
Li	      4.10854      4.12633      4.41893         0.025085      0.040096      0.031284
Li	      0.12923      4.07796      4.38344         0.026318     -0.023496      0.031378
Li	      2.20968      4.11051      6.41044         0.013744      0.045264      0.018910
Li	      4.32614      6.25887      6.41953        -0.022654      0.021580     -0.025771
Li	      4.24121      4.12885      8.58215        -0.016170      0.044836     -0.056396
Sc	      4.35765      6.10631     10.77699        -0.058943     -0.027025     -0.022131
Sc	      0.05958      2.11267      2.26296        -0.043923      0.072320      0.075788
Sc	      6.36632      4.19921      6.43616         0.036169      0.034466     -0.089763
Mn	      6.42549      2.10540      4.27511        -0.013676      0.025104      0.001047
Mn	      4.23930      2.11212      6.47978        -0.005141     -0.082603     -0.027482
Mn	      2.21611      6.17659      4.35554        -0.055193      0.041541      0.114754
V	      4.36210     10.21861      6.55101         0.265681      0.010724      0.103206
V	      2.19317      6.19196      8.63354        -0.022843     -0.155938     -0.015062
Cr	      6.45174      6.24659      8.58384         0.000341      0.032430      0.019851
O	      2.10213      1.97483      2.22479        -0.028092      0.104172     -0.015048
O	      4.39713      4.16846      1.98587        -0.172020      0.005264      0.079317
O	      4.29857      2.03839      4.51838        -0.035637      0.016844     -0.026424
O	      6.58519      4.19433      4.27449         0.006298      0.071712      0.027921
O	      6.47304      1.99150      6.55454         0.019919     -0.034988      0.068415
O	      8.67760      4.25698      6.40636         0.060266     -0.019441      0.019056
O	      2.16642      4.29141      4.31740        -0.050466     -0.062872      0.025946
O	      4.15584      6.23024      4.26584         0.000855     -0.016524     -0.037565
O	      4.36019      4.03763      6.45030        -0.034250      0.064787      0.012426
O	      6.36755      6.23100      6.60421         0.023902      0.014207     -0.010768
O	      6.47925      4.19942      8.52041        -0.023722     -0.025095      0.004317
O	      8.51544      6.24234      8.47541         0.021868      0.008803      0.015423
O	      2.00837      6.19170      6.62713         0.055824     -0.005642     -0.156463
O	      4.21973      8.48782      6.46374         0.060453     -0.023652      0.012083
O	      4.38166      6.23088      8.72487        -0.050055     -0.010722     -0.016423
O	      6.45564      8.29310      8.65231         0.010181     -0.024272     -0.070975
O	      6.55137      6.16462     10.81443        -0.082363     -0.092727     -0.065328
O	      8.60688      8.18836     10.85345         0.045034     -0.000180      0.007074
