# total energy = -239.01155931 eV
 
CRYSTAL
PRIMVEC
-0.006179 6.252894 6.372043 
6.346828 -0.002594 6.368215 
4.228356 4.163859 0.001285 
PRIMCOORD
36 1
Li	      4.13776      4.13972      0.10965        -0.210260      0.046210     -0.051341
Li	      2.25273      8.35639      6.39872        -0.036821      0.095560     -0.080795
Li	      2.11428      0.05541      2.08189         0.058587      0.041651      0.010284
Li	      4.10379      2.18901      2.04940        -0.014527     -0.029433     -0.018329
Li	      4.25921      6.24702     10.60556        -0.025739     -0.029303      0.233994
Li	      2.18792      4.10080      2.12544         0.017547      0.079540     -0.150381
Li	      4.17903      4.13610      4.12037        -0.023057     -0.018110     -0.033877
Li	      6.31735      4.19895      6.45879         0.143033     -0.033953     -0.022821
Li	      6.29349      6.15500      8.51189         0.023631      0.020592     -0.024255
Sc	      6.28842      2.12839      4.23204         0.023652      0.094270      0.306463
Sc	      0.06110      2.00140      2.01491         0.002201      0.100851     -0.244063
Sc	      6.28091      8.33937      6.47833         0.168831     -0.194527     -0.110199
V	      6.38770      6.13942      4.20731         0.329813      0.047516      0.234268
V	      8.44007      6.23278     10.60304        -0.100572     -0.186729     -0.254602
Cr	      4.26102      4.24200      8.46978        -0.045851     -0.048088      0.140148
Co	      8.46064      6.02288      6.39824         0.040545      0.935972     -0.022286
Co	      6.30924      4.22878     10.62933         0.103521      0.110159     -0.213879
Co	      4.23305      6.22805      6.37942         0.125062     -0.004166     -0.065676
O	      2.11288      2.12620      2.30184        -0.015925     -0.090844     -0.139984
O	      4.26497      4.20802      2.08251         0.060357     -0.190902      0.087543
O	      4.14785      2.08568      4.34097        -0.266342     -0.249728      0.014422
O	      6.36377      4.32649      4.26374        -0.111173      0.019481     -0.154367
O	      6.25208      2.13302      6.33211         0.189670     -0.059805      0.096192
O	      8.43109      4.25396      6.38973        -0.008396     -0.283964     -0.047565
O	      2.11005      4.06854      4.30790         0.163600      0.041607      0.016968
O	      4.25081      6.22169      4.30571         0.062316      0.130747      0.074714
O	      4.19816      4.20783      6.46488        -0.027356     -0.002409      0.039565
O	      6.29483      6.24300      6.25383        -0.210287      0.042758     -0.002360
O	      6.24819      4.16107      8.56979        -0.019778     -0.014579      0.194333
O	      8.49164      6.31806      8.54605        -0.010942     -0.084387      0.423154
O	      2.27838      6.24073      6.23196         0.031004      0.057278     -0.050244
O	      4.23269      8.19204      6.33313        -0.159776     -0.075877      0.040910
O	      4.24614      6.20503      8.28774        -0.001609      0.035417     -0.092476
O	      6.42975      8.36148      8.52587        -0.046989     -0.002845     -0.063579
O	      6.46544      6.30092     10.66876        -0.010496     -0.219996     -0.068032
O	      8.40082      8.32740     10.52625        -0.197473     -0.079965     -0.001848
