# total energy = -239.15923569 eV
 
CRYSTAL
PRIMVEC
0.015353 6.436497 6.276492 
6.445703 0.000333 6.292607 
4.292012 4.296929 0.004651 
PRIMCOORD
36 1
Li	      8.54262      2.17247      6.34945         0.034153      0.000176      0.029000
Li	      6.47496      4.30089      2.21072         0.023778     -0.035601      0.025168
Li	      6.42330      2.14429      4.18869         0.005825     -0.040923     -0.047798
Li	      6.48389      2.26590      8.32277        -0.024884      0.057652      0.039773
Li	      8.47987      4.26303      8.39213        -0.029939      0.012153     -0.017739
Li	      4.43281      2.03266      6.26472         0.004068      0.009480     -0.030358
Li	      6.41720      4.35416     10.24728         0.016558     -0.031933      0.034758
Li	      4.42763      4.31052      8.48787         0.035229     -0.034471     -0.028233
Li	      6.41729      6.33317      8.47060         0.033430      0.009224     -0.005967
Sc	      6.56466      4.16243      6.36527        -0.117829      0.007452     -0.001039
Sc	      6.46772      8.56089      6.39660         0.072792      0.064768      0.013157
Sc	      4.25202      6.48537      6.36420        -0.073829      0.003304     -0.099644
V	      8.47499      6.58052     10.31778         0.348147     -0.113270     -0.076009
V	      4.27306      4.33283      4.03927         0.059639      0.026627      0.148266
Cr	      4.30554      2.13214      2.14705        -0.073491      0.062372      0.055703
Fe	      2.17089      2.12632      4.09581        -0.166985      0.134713      0.143677
Co	     10.65144      4.42401      6.34846         0.054413     -0.203321      0.000393
Cu	      8.63405     10.62935     10.43983         0.032916     -0.070137     -0.014497
O	      2.26522      2.14696      2.20263         0.018975     -0.002539     -0.240364
O	      4.29326      4.21185      2.21687        -0.031819      0.077968     -0.160850
O	      4.20052      2.35436      4.15559         0.081932      0.067841      0.059492
O	      6.22272      4.42930      4.21487        -0.133215     -0.117848     -0.019539
O	      6.44616      2.14350      6.30216         0.021690      0.038551     -0.084596
O	      8.60815      4.28441      6.19917         0.157530     -0.008590     -0.190168
O	      2.26724      4.34329      4.19810         0.005285     -0.061760      0.066433
O	      4.23423      6.33514      4.17797         0.058308     -0.005082      0.080430
O	      4.28316      4.36268      6.14379         0.009867     -0.039900      0.001708
O	      6.36820      6.46825      6.14729        -0.022416     -0.029699      0.010115
O	      6.43968      4.32139      8.32127        -0.011498     -0.003325     -0.020397
O	      8.61038      6.41113      8.58730        -0.006002      0.005191     -0.165366
O	      2.19335      6.35806      6.13901        -0.070461      0.070770      0.086352
O	      4.34907      8.56542      6.39280         0.013135      0.084709      0.080467
O	      4.29627      6.54429      8.41512         0.023162     -0.144203      0.200539
O	      6.34468      8.60272      8.39029         0.003631     -0.011525      0.051329
O	      6.73122      6.38327     10.51325        -0.385338      0.007684      0.020578
O	      8.66814      8.31023     10.48404         0.033244      0.213492      0.055229
