# total energy = -238.80277234 eV
 
CRYSTAL
PRIMVEC
0.029033 6.378830 6.316259 
6.443520 0.019220 6.326384 
4.309213 4.272549 -0.000711 
PRIMCOORD
36 1
Li	      8.38171      2.23891      6.26140         0.015948     -0.028008     -0.060165
Li	      4.28523      2.03007      2.24525         0.043562      0.012172      0.024657
Li	      4.17721      0.10789      4.15604         0.032569     -0.039524     -0.035945
Li	      6.42681      2.19657      4.32641        -0.016986     -0.006836     -0.086299
Li	      6.43140      2.17843      8.25160        -0.042854     -0.001788      0.025105
Li	      6.63224      6.27880      4.27301        -0.001236      0.022033      0.044803
Li	      6.58003      4.11910      6.28622         0.018864     -0.038353     -0.003750
Li	      4.33823      4.42986      8.40392        -0.024355      0.057433      0.057995
Li	      6.39229      6.35217      8.40101         0.018499      0.003882      0.004726
Sc	      4.42739      4.17623      4.17936         0.088168      0.092067     -0.009571
Sc	      6.39509      4.28349     10.45960        -0.030344     -0.025735     -0.039418
Sc	      8.55249      6.49833     10.41960        -0.010717      0.057886      0.083439
V	      2.13511      4.09564      2.05076        -0.004193      0.044862     -0.009819
V	      6.49034      8.52723      6.53490        -0.080024     -0.062518      0.278511
Cr	     10.72143      4.32725      6.34425         0.111036     -0.075579      0.031098
Fe	      4.43271      6.41381      6.40636        -0.147736      0.042937     -0.056100
Co	      8.65230      6.36189      6.33401         0.006640      0.106237     -0.008605
Ni	      2.19825      0.12089      2.14812        -0.011122      0.030574      0.009566
O	      2.17648      2.29163      2.13341        -0.028147     -0.052693     -0.017972
O	      4.25646      4.25832      2.06412        -0.066269      0.001382     -0.026356
O	      4.30756      2.18939      4.30043         0.046748     -0.125436      0.329584
O	      6.42174      4.30398      4.16513        -0.042478      0.011695      0.167995
O	      6.40701      2.01331      6.32789        -0.260864     -0.010398     -0.041999
O	      8.71107      4.20624      6.44238        -0.015243      0.075905     -0.022511
O	      2.16719      4.31538      4.19180         0.005819     -0.071430      0.020945
O	      4.21999      6.42039      4.37544         0.031074     -0.033194      0.007365
O	      4.16791      4.37410      6.31004        -0.001556     -0.142805     -0.015859
O	      6.42372      6.59327      6.34209         0.337629     -0.029517     -0.018609
O	      6.62046      4.24528      8.41071        -0.038288     -0.031943      0.000631
O	      8.60813      6.15453      8.42115         0.051552      0.051047     -0.453943
O	      2.09813      6.30952      6.33723         0.001486      0.069560     -0.125826
O	      4.51929      8.54219      6.28385        -0.081372      0.099195     -0.071471
O	      4.25997      6.44617      8.29697         0.123078     -0.006729      0.112159
O	      6.50801      8.59170      8.28600         0.010821     -0.068446     -0.196603
O	      6.50319      6.35045     10.62824        -0.046980      0.036233      0.060095
O	      8.69057      8.49406     10.46044         0.007269      0.035834      0.042147
