# total energy = -241.84321373 eV
 
CRYSTAL
PRIMVEC
0.034242 6.401617 6.398389 
6.467560 0.058851 6.373912 
4.342305 4.281557 0.008947 
PRIMCOORD
36 1
Li	      6.39140      0.20593      6.38682        -0.043115      0.029703      0.041462
Li	      8.54728      2.23489      6.33203         0.014659     -0.008453      0.018535
Li	      6.59664      8.52445     10.77514         0.064458     -0.011126     -0.013322
Li	     10.66152      6.51470      8.45146        -0.028576     -0.030959      0.013002
Li	      8.64299      4.46814      8.53800         0.063515     -0.008362      0.040124
Li	      8.78655      6.35020      6.54455         0.039402     -0.039404      0.064860
Li	      6.47070      4.35688     10.49323        -0.031043      0.019575     -0.086250
Li	      8.62859      6.48967     10.50480         0.061656     -0.026654      0.038740
Li	      6.69392      6.36622      8.55233         0.000812      0.013602     -0.031753
Sc	      6.40737      4.35680      2.13131        -0.058214      0.021136     -0.022048
Sc	      6.48913      8.55273      6.38687        -0.144321      0.013647      0.095686
Sc	      4.33574      6.48036      6.37895        -0.012357      0.136097      0.072993
V	      4.54311      6.39864     10.69017         0.035364      0.040160     -0.033761
V	      4.34705      4.23549      4.24379        -0.046490      0.005827     -0.159860
Cr	      8.69684      8.50015      8.56916         0.013889     -0.028555      0.058947
Fe	      2.15253      2.19991      4.20058        -0.019956     -0.053937     -0.037928
Fe	      6.59886      4.12655      6.48777         0.030710      0.146148     -0.055478
Co	      4.29835      2.18772      2.11380         0.121558     -0.061426      0.220696
O	      2.21772      2.12072      2.22972         0.098404     -0.008944     -0.054202
O	      4.35657      4.26910      2.25916         0.018019     -0.087571     -0.002487
O	      4.23891      2.14791      4.23110        -0.012418     -0.056897     -0.513169
O	      6.52743      4.37414      4.28328        -0.044240     -0.010223      0.021084
O	      6.49492      2.25836      6.36326        -0.037997     -0.120491      0.002537
O	      8.56010      4.31234      6.22122         0.048377      0.028571     -0.058418
O	      2.25145      4.20026      4.28575        -0.002910      0.037771      0.027808
O	      4.44755      6.26264      4.32225        -0.016387      0.028257      0.043059
O	      4.35421      4.30771      6.36011        -0.015116      0.001642      0.023642
O	      6.43930      6.43719      6.30006        -0.031794     -0.046160     -0.002945
O	      6.37336      4.33015      8.41639        -0.079267      0.033955      0.096062
O	      8.63605      6.56840      8.56541         0.014874      0.023701     -0.024610
O	      2.25317      6.37058      6.44708         0.041311     -0.004075     -0.032978
O	      4.44009      8.51058      6.43755        -0.085299      0.074061      0.378489
O	      4.28278      6.37855      8.59068        -0.030406     -0.013919     -0.035535
O	      6.58704      8.62393      8.48833         0.022763     -0.016960     -0.045670
O	      6.28243      6.49106     10.66191         0.047733     -0.014702     -0.027468
O	      8.70187      8.75909     10.54627         0.002399     -0.005034     -0.019841
