# total energy = -240.39899605 eV
 
CRYSTAL
PRIMVEC
0.010726 6.396460 6.390057 
6.382511 0.003221 6.397486 
4.256404 4.270742 0.000831 
PRIMCOORD
36 1
Li	      6.41249      0.07193      6.40188         0.013582     -0.018080      0.015589
Li	      8.31572      2.21405      6.44369        -0.003497      0.027751      0.019630
Li	      6.39365     10.64112      8.54509         0.020839     -0.020974      0.013127
Li	      4.26381      2.14113      2.22762        -0.026422      0.005990      0.004399
Li	      4.26355      6.41895     10.55453        -0.006060      0.009726     -0.101789
Li	      6.44848      2.14181      8.44844         0.019816      0.007264      0.007290
Li	      4.25314      4.23906      4.17254        -0.017960      0.005500     -0.039184
Li	      6.50061      4.12010      6.46083         0.014760     -0.018272      0.056986
Li	      6.35424      6.43159      8.62251        -0.010324     -0.004127      0.061041
Sc	      4.38761      2.09530      6.33450        -0.113306     -0.040939     -0.017483
Sc	      6.36045      4.33362     10.64044         0.011093     -0.019818      0.047281
Sc	      4.27090      6.40241      6.48335        -0.033249      0.070806      0.011320
V	      2.27019      4.21470      2.07533         0.086344      0.026421      0.030514
V	      6.39367      6.21923      4.21116        -0.125462      0.030088     -0.037944
Cr	      4.29035      4.27280      8.53057         0.061077     -0.014317      0.031945
Fe	      8.43735      6.42977     10.63822         0.241828     -0.118517      0.030545
Fe	      6.34367      8.57360      6.53481         0.024436      0.038285     -0.161467
Cu	      6.34209      2.11512      4.27861        -0.040845     -0.032897      0.020182
O	      2.11722      2.27524      2.24602        -0.003523      0.029618     -0.030058
O	      4.03391      4.28221      2.14848        -0.047380     -0.002268     -0.049922
O	      4.06527      2.14252      4.27438         0.039295      0.011145     -0.044523
O	      6.31785      4.47694      4.20992        -0.006799     -0.108016     -0.045882
O	      6.35301      2.15170      6.36717         0.046758     -0.018074     -0.055181
O	      8.47970      4.29569      6.55652         0.000750      0.018051      0.000703
O	      2.11482      4.26186      4.17758         0.020961     -0.011972     -0.009428
O	      4.31294      6.44203      4.31397         0.011863      0.001849      0.017486
O	      4.19450      4.25604      6.49861         0.029550     -0.023541      0.038338
O	      6.39466      6.53178      6.22918         0.024667     -0.025905     -0.022328
O	      6.42363      4.28572      8.56226        -0.028190     -0.014883     -0.012853
O	      8.52118      6.39036      8.56266         0.004970      0.031640     -0.116560
O	      2.18640      6.30214      6.27079         0.030228      0.023910      0.109601
O	      4.37550      8.48129      6.38643        -0.044801     -0.021884      0.002579
O	      4.28912      6.26004      8.50472         0.014192     -0.014447      0.000051
O	      6.50621      8.54871      8.46476         0.028198     -0.015649      0.247320
O	      6.49533      6.35848     10.67107        -0.232015      0.063268      0.013079
O	      8.57998      8.45242     10.54578        -0.005377      0.143270     -0.034406
