# total energy = -238.08901706 eV
 
CRYSTAL
PRIMVEC
0.039674 6.444019 6.380869 
6.539381 0.013214 6.406664 
4.356074 4.310130 0.012172 
PRIMCOORD
36 1
Li	     10.63821      6.71753      8.58774        -0.054705      0.014126      0.022750
Li	      8.45832      4.54972      8.51577        -0.027886      0.020943     -0.004794
Li	      8.66422      6.51952      6.71819        -0.045350      0.026881     -0.036436
Li	      6.45705      4.43302      6.69899        -0.080786      0.104176     -0.039924
Li	      6.50590      4.29203     10.39305        -0.033637      0.005955      0.029653
Li	      8.83178      6.41958     10.42573         0.032826     -0.034207      0.059086
Li	      4.51150      6.34895      6.33705         0.025570     -0.064689      0.045881
Li	      4.65337      4.05888      8.48059         0.009638     -0.001908     -0.011949
Li	      6.80340      6.20842      8.45383        -0.003578     -0.002651      0.000192
Sc	      2.25527      6.50193      8.41500         0.066363      0.011481     -0.019580
Sc	      8.76728     10.73830     10.69485         0.036322     -0.026596      0.052096
Sc	      6.66038      8.52274     10.62732         0.058036     -0.094690      0.034078
V	     10.81510      4.34321      6.46813        -0.080539      0.079721     -0.110085
V	      4.39632      8.62058      8.49427        -0.002371     -0.102555      0.033730
Cr	      4.35743      4.33222      4.29080        -0.044660      0.044003      0.088049
Fe	      6.39859      6.56461      4.30212         0.085531     -0.003070     -0.068510
Fe	      2.32457      4.21491      6.37453        -0.056081      0.083516      0.001200
Ni	      2.23932      8.59390      6.39778        -0.002248     -0.003979      0.041674
O	      6.53641      4.32031      8.53127         0.008116     -0.008045      0.002844
O	      2.34714      2.11853      2.16679         0.034968     -0.052796      0.067002
O	      4.43669      4.20167      2.14698         0.051001     -0.032579      0.021905
O	      4.38484      2.20161      4.21563         0.008709     -0.002154      0.002678
O	      6.50365      4.29003      4.24756        -0.010983      0.007229     -0.027107
O	      6.63453      1.88769      6.39371        -0.017021     -0.056403     -0.008578
O	      8.87296      4.23814      6.40967         0.106700      0.089418      0.007097
O	      2.33911      4.22111      4.34551         0.077879      0.044334     -0.078305
O	      4.50247      6.31756      4.24714        -0.091032     -0.082204     -0.025129
O	      4.26713      4.33046      6.26947         0.091610      0.000732     -0.022798
O	      6.52835      6.56819      6.26695        -0.012448     -0.035825      0.041286
O	      8.69892      6.48870      8.56937        -0.011772     -0.003100     -0.000525
O	      2.06731      6.40695      6.40175         0.000511     -0.063126      0.012583
O	      4.43090      8.80809      6.42518         0.093693     -0.004010      0.003962
O	      4.30412      6.61679      8.57750        -0.074750      0.012750      0.001798
O	      6.45000      8.67495      8.49450        -0.010775      0.055095     -0.016536
O	      6.46307      6.50615     10.83274        -0.067629      0.023282      0.014153
O	      8.66283      8.70509     10.75840        -0.059224      0.050948     -0.113438
