# total energy = -242.80692211 eV
 
CRYSTAL
PRIMVEC
0.013802 6.339917 6.323363 
6.473498 0.007063 6.329622 
4.324303 4.239273 -0.003644 
PRIMCOORD
36 1
Li	      8.66328      4.27804      4.29881         0.033570      0.033276     -0.012819
Li	      6.40279      2.15183      4.27906        -0.070346      0.046462      0.022621
Li	      6.51178      6.32977      4.49082         0.015715     -0.003995     -0.094443
Li	      8.36668      6.35015      6.25401         0.007560     -0.015695      0.020973
Li	      6.49361      4.48767      6.20726         0.013324     -0.071919      0.000781
Li	      2.15077      6.31117      4.27088        -0.007225     -0.012035      0.025249
Li	      6.54814      8.22236      6.29360         0.019777      0.045139      0.053643
Li	      4.59894      6.30515      6.25180         0.001047      0.009333      0.043161
Li	      6.53739      6.33072      8.23328         0.031159     -0.006613      0.094449
Sc	      6.53518     10.54685      8.47724         0.002535      0.049396      0.000491
Sc	      4.44327      8.35361      8.48802        -0.014854     -0.060977     -0.000528
Sc	     10.76370      6.39950      8.43826        -0.001032     -0.035301     -0.072611
V	      8.62351      4.30925      8.44555         0.031621      0.015646     -0.115664
V	      4.29526      4.22907      8.39905        -0.023246     -0.035512      0.008904
Cr	      4.37286      8.44317      4.24834        -0.001675     -0.049497      0.021990
Fe	      6.48620      6.39185     12.47971        -0.019731      0.005091      0.271469
Fe	      8.60689      8.46871     12.49183         0.047722      0.031484      0.053464
Fe	      4.37351      4.21844      4.48203        -0.107453      0.092576     -0.134274
O	      2.19175      2.17945      1.99628        -0.011956     -0.012077      0.000262
O	      4.29738      4.22752      2.08539        -0.022860      0.016128     -0.003153
O	      4.30928      2.25432      4.15566        -0.004113     -0.085924      0.019377
O	      6.30838      4.26835      4.17945         0.046166     -0.018017      0.000432
O	      6.60275      2.05658      6.32619        -0.051137      0.061393     -0.031295
O	      8.72741      4.16928      6.40831         0.024366      0.026730     -0.033496
O	      2.12596      4.23551      4.07633         0.004146      0.019297      0.080843
O	      4.31177      6.32385      4.17220        -0.013453      0.035754      0.028694
O	      4.29881      4.25064      6.40025        -0.037464      0.012410      0.112774
O	      6.47811      6.35648      6.35714        -0.005308     -0.004957     -0.023228
O	      6.48340      4.20766      8.55777         0.030961      0.055234     -0.018893
O	      8.70876      6.36658      8.40016         0.000997      0.039403      0.006028
O	      2.02626      6.47255      6.37175         0.012744     -0.072805     -0.025595
O	      4.24563      8.52055      6.28549        -0.017829     -0.014481     -0.024778
O	      4.25182      6.29339      8.48747         0.011100      0.001361      0.015234
O	      6.49979      8.50711      8.44627        -0.007497     -0.061779      0.013047
O	      6.48445      6.21850     10.60899        -0.004390     -0.023727     -0.239412
O	      8.78144      8.46208     10.48735         0.087060     -0.010803     -0.063695
