# total energy = -245.03631731 eV
 
CRYSTAL
PRIMVEC
0.023464 6.406256 6.309148 
6.359061 0.040979 6.291437 
4.251752 4.271401 0.015107 
PRIMCOORD
36 1
Li	      2.20617      2.07364      0.15710         0.004814      0.000292     -0.148429
Li	      4.11684      8.46722      8.34253         0.135983      0.031051     -0.042297
Li	      4.17779      0.11169      4.06465        -0.018964      0.049248      0.069124
Li	      0.19030      2.06315      2.12702        -0.042788      0.013592      0.010588
Li	      2.17256      4.11679      2.11883        -0.022385     -0.052269      0.033864
Li	      2.20215      2.07096      4.06984         0.081474     -0.009915      0.132692
Li	      4.19862      6.48781      6.42709        -0.022813      0.029852     -0.103664
Li	      4.25449      4.46506      8.38570        -0.038442      0.011018      0.028125
Li	      6.22338      6.40006      8.37548        -0.082375      0.011330      0.034258
Sc	      6.37203      8.59855     10.40014         0.037026      0.008116     -0.115449
Sc	      6.39458      4.34094      6.39672         0.034162      0.029388     -0.029935
Sc	     10.57186      8.50722     10.41435        -0.049713      0.049330      0.037940
V	      8.48197      6.41515      6.48914        -0.091551      0.211998     -0.074510
V	      6.38334      8.55482      6.37020         0.245350     -0.041775     -0.255914
Cr	      4.25887      4.27316      0.06339         0.063349      0.040664     -0.087926
Cr	      8.50687      6.43015     10.42682        -0.116022      0.050463      0.028088
Co	      2.19180      0.11821      2.10144        -0.028871     -0.044658      0.103187
Co	      4.23823      4.30168      4.13566         0.020411     -0.029329      0.041503
O	      2.15727      2.02017      2.10576         0.014887     -0.290087     -0.050579
O	      4.44595      4.28644      2.05269         0.158244      0.014521     -0.042913
O	      4.29819      2.19982      4.45101        -0.085092     -0.060750     -0.032189
O	      6.36415      4.24435      4.30920         0.073126      0.091053     -0.176861
O	      6.27479      2.13423      6.28570         0.046195     -0.087349      0.056826
O	      8.55217      4.41970      6.36156         0.042364     -0.045709      0.051564
O	      2.12214      4.35768      4.27048        -0.050115     -0.141157     -0.222208
O	      4.13316      6.41307      4.22523         0.082940     -0.050305     -0.046317
O	      4.20848      4.17745      6.31121         0.109822      0.194565      0.070526
O	      6.49408      6.44890      6.35943        -0.199694     -0.311929      0.031239
O	      6.37632      4.33156      8.39547         0.007530     -0.005815      0.030429
O	      8.50594      6.43396      8.30652         0.024626     -0.018663      0.183407
O	      2.03858      6.35388      6.15652         0.068450      0.370085      0.055558
O	      4.38037      8.67968      6.26602        -0.257506     -0.222889      0.002940
O	      4.10470      6.46021      8.39586        -0.218079      0.073435     -0.054924
O	      6.39351      8.69668      8.32225         0.012067      0.187697      0.499808
O	      6.43318      6.45119     10.53578         0.010867     -0.058159      0.032441
O	      8.48375      8.44728     10.49751         0.050724      0.003060     -0.049991
