# total energy = -238.90027145 eV
 
CRYSTAL
PRIMVEC
0.008737 6.511893 6.267838 
6.435183 0.008314 6.269249 
4.285999 4.338096 0.008897 
PRIMCOORD
36 1
Li	      4.28995      4.23443      0.23235        -0.003132     -0.075396     -0.058021
Li	      6.24386      4.43507      2.06309        -0.054413      0.040159      0.037644
Li	      4.24031      2.37798      1.96492         0.033391      0.074836      0.008473
Li	      2.35193      4.21270      2.14643         0.057575     -0.081442     -0.012876
Li	      2.23984      2.17759      4.01979         0.093669     -0.019652     -0.064196
Li	      4.16904      4.37636      4.05615        -0.040961     -0.028533      0.065093
Li	      6.47328      8.66808      6.36776         0.044907     -0.037258     -0.006419
Li	      4.25394      6.55800      6.30872        -0.007096      0.032240      0.024161
Li	      4.22176      4.34053      8.25975        -0.028105      0.027055     -0.035873
Sc	      6.42682      8.71409     10.36390        -0.012591      0.022572      0.004581
Sc	      6.35607      4.38091      6.35479        -0.011409      0.085139     -0.068757
Sc	      4.33428      8.61331      4.24763         0.007133     -0.032352     -0.036868
V	      4.23756      0.04284      4.12645         0.038240      0.027715      0.063072
V	      2.21490      6.37019      4.24831        -0.063591      0.031220     -0.046671
Cr	      8.56633      6.55296      6.30657        -0.004861     -0.019509     -0.033322
Cr	      6.45299      6.55125      8.34707        -0.010759     -0.002958      0.010162
Cu	      2.25222      2.15948      0.14934        -0.166704     -0.016111     -0.087613
Ni	      4.38576      6.31230      2.08681        -0.108961      0.147502     -0.057066
O	      2.09083      2.17887      2.03186         0.167159      0.021349      0.129653
O	      4.30612      4.35553      2.11788        -0.013845     -0.203149     -0.015445
O	      4.31639      2.03757      4.27921         0.024344      0.045715     -0.043852
O	      6.60774      4.29303      4.19256        -0.047802      0.010347     -0.040784
O	      6.33831      2.24555      6.27931        -0.017823      0.017679     -0.063744
O	      8.56700      4.49675      6.07243         0.019802      0.105552      0.045212
O	      2.10147      4.48077      4.16910        -0.015056     -0.122776     -0.009070
O	      4.13794      6.54068      4.11660         0.033576      0.032414      0.148229
O	      4.34910      4.21634      6.24874        -0.002168      0.013028     -0.036550
O	      6.53594      6.48135      6.35424        -0.029749      0.021125     -0.000370
O	      6.41728      4.49189      8.37883        -0.029619      0.008097      0.038894
O	      8.49671      6.55597      8.43738        -0.026689      0.040614     -0.022415
O	      2.11603      6.48362      5.99552        -0.031632     -0.116518      0.146716
O	      4.23008      8.63616      6.24746         0.141870     -0.010758      0.088336
O	      4.42657      6.49515      8.58467         0.010284     -0.041123     -0.109573
O	      6.46323      8.55027      8.39409         0.021720      0.007766     -0.008944
O	      6.45973      6.52401     10.38151         0.016415     -0.020049      0.045034
O	      8.57320      8.76626     10.56638         0.016884      0.015458      0.003170
