# total energy = -239.66115356 eV
 
CRYSTAL
PRIMVEC
-0.056851 6.318811 6.456617 
6.316530 -0.011851 6.411708 
4.203754 4.175030 -0.001166 
PRIMCOORD
36 1
Li	     10.39812      4.24476      6.49721        -0.014882     -0.042591      0.042220
Li	      8.39304      2.15168      6.50675         0.043885     -0.050564      0.007274
Li	      6.19181      2.07016      4.48239         0.035051      0.058531     -0.002706
Li	     10.43749      6.21616      8.52478        -0.036707      0.019014     -0.034953
Li	      2.21981      4.13558      2.09012        -0.051260      0.022351     -0.016312
Li	      2.23132      2.12105      4.16973         0.033329      0.016803      0.014876
Li	      4.15451      4.08613      4.19742         0.016172     -0.069767      0.053672
Li	      4.14420      6.32673      6.34381        -0.011516      0.018813     -0.003383
Li	      6.27531      6.29912      8.63452         0.039157      0.009315     -0.046318
Sc	      6.20462      4.27796      2.15328        -0.025203      0.074130     -0.001081
Sc	      6.33767      4.16147      6.41865        -0.015485     -0.073313      0.045106
Sc	      8.35382      8.36710      8.56631         0.045105     -0.151149     -0.158273
V	      0.01479      4.14643      4.25355         0.080576     -0.162444      0.108744
V	      6.25198      8.32894      6.40192         0.038534     -0.141838      0.023077
Cr	      4.22802      0.02858      4.32730         0.053048      0.077960      0.127025
Cr	      8.33949      6.30021     10.72913         0.048536     -0.035888      0.006238
Cu	      4.15732      2.10975      2.16869         0.089052      0.027112      0.028291
Cu	      4.25919      2.09033      6.42157        -0.055468     -0.002513      0.082927
O	      2.16477      2.08647      2.10767        -0.167834     -0.052968      0.011195
O	      4.20708      4.09819      2.17569         0.018464      0.016431     -0.011263
O	      4.25933      1.97044      4.36401         0.013309     -0.056943     -0.091940
O	      6.40629      4.16888      4.29304         0.019628      0.012677     -0.031366
O	      6.20280      2.13485      6.47073         0.243545      0.044492     -0.018291
O	      8.37680      4.10401      6.32125        -0.062768     -0.168062     -0.075425
O	      2.00770      4.28166      4.36452        -0.030103      0.011836     -0.001322
O	      4.06055      6.48164      4.25790        -0.033498      0.180558     -0.042599
O	      4.16422      4.32292      6.47771        -0.040593      0.254187      0.039062
O	      6.42342      6.45227      6.38684        -0.132800      0.139254     -0.000972
O	      6.23314      4.24059      8.59427        -0.038155     -0.013210      0.099422
O	      8.32572      6.33458      8.75601        -0.014289      0.108042      0.022688
O	      2.08068      6.12270      6.37817        -0.047321     -0.033741      0.092357
O	      4.33677      8.30522      6.23355        -0.021026      0.034041     -0.068764
O	      4.12708      6.33958      8.73534         0.012434     -0.081409     -0.007350
O	      6.22428      8.41414      8.39273         0.009886      0.012317     -0.149469
O	      6.27556      6.11019     10.74080        -0.066036     -0.050982     -0.026760
O	      8.46203      8.36457     10.71277         0.025232      0.049521     -0.015625
