# total energy = -243.71072392 eV
 
CRYSTAL
PRIMVEC
0.039165 6.337585 6.239590 
6.419664 0.015849 6.262648 
4.305835 4.266248 -0.015520 
PRIMCOORD
36 1
Li	      8.48050      2.21090      6.32267         0.034168     -0.024125      0.014492
Li	      6.37982      2.21290      8.26751        -0.033434      0.030936      0.018303
Li	      8.50672      4.30480      8.26158        -0.029337     -0.004730      0.045270
Li	      6.38608      6.43038      4.21815        -0.029306     -0.004437      0.014565
Li	      8.53774      6.40195      6.43946        -0.043739      0.056091     -0.018443
Li	      6.52757      8.37895      6.25714         0.052824      0.019432     -0.007076
Li	      4.51076      6.25261      6.21616         0.059222     -0.104718     -0.010602
Li	      4.33113      4.13557      8.21400         0.045627     -0.002080     -0.101857
Li	      6.57912      6.33691      8.14489         0.059382     -0.056301      0.014882
Sc	      2.18986      6.38512      8.23787        -0.003264      0.024501      0.096422
Sc	      4.30425      8.45202      8.19818        -0.044272      0.076135     -0.045768
Sc	      8.63588      6.40143     10.30363         0.035107     -0.001570     -0.017766
V	      8.55552      4.29792      4.21166        -0.016756     -0.273084      0.218881
V	      0.09392      4.18245      4.06288         0.025920      0.173641     -0.239829
Cr	     10.67527      4.35397      6.30266        -0.077960      0.010049     -0.114757
Cr	      6.43867      2.15326      4.18355         0.180325      0.030624     -0.079489
Fe	      4.22258      4.27685      4.27601         0.121129     -0.085085      0.024192
Co	      6.42718      4.30014      6.35011         0.018563      0.148627      0.138004
O	      2.24325      2.06860      2.10268         0.044648     -0.023383     -0.010010
O	      4.32721      4.23716      2.09367         0.020660      0.000287     -0.037922
O	      4.43044      2.12878      4.12445        -0.085169     -0.131353     -0.017564
O	      6.42462      4.15472      4.26233         0.286527      0.034711     -0.908957
O	      6.43962      2.13890      6.17603         0.060231     -0.074296     -0.020093
O	      8.57532      4.28786      6.17187         0.539690      0.013162     -0.515538
O	      2.19646      4.24558      4.20580        -0.149846      0.049196     -0.020985
O	      4.28365      6.32806      4.17358        -0.029946      0.138571      0.037754
O	      4.45614      4.23445      6.16580        -0.891741     -0.038415     -0.026408
O	      6.45453      6.15443      6.23214         0.141025      0.128142     -0.056416
O	      6.45201      4.23439      8.37330         0.010770     -0.164588      1.150719
O	      8.58155      6.39084      8.38101        -0.038671     -0.025608      0.110741
O	      1.99439      6.36728      6.23970        -0.051939      0.058773     -0.039951
O	      4.32686      8.61996      6.11127        -0.032767     -0.020970      0.145707
O	      4.26406      6.40223      8.43277         0.076783     -0.019170      0.243887
O	      6.44092      8.52590      8.39723        -0.074421     -0.001867      0.034570
O	      6.41316      6.40645     10.52265        -0.065582     -0.000760     -0.007601
O	      8.63029      8.58780     10.40452        -0.114450      0.063664     -0.011356
