# total energy = -243.52250743 eV
 
CRYSTAL
PRIMVEC
0.030207 6.356171 6.499162 
6.304906 0.030140 6.499654 
4.226422 4.260563 -0.003049 
PRIMCOORD
36 1
Li	      6.26486      6.41634     12.88527         0.054780     -0.028203     -0.022863
Li	      8.55071      8.50953     12.86518         0.026482      0.004533     -0.105628
Li	      4.25845      8.35738      8.60655        -0.024788      0.038491     -0.022775
Li	      4.41810      6.41372     10.86043        -0.077574      0.026036      0.019077
Li	      6.37463      8.30246     10.90636         0.016081      0.082725      0.123416
Li	      8.44214      4.26974      8.54460         0.086445     -0.048760      0.034160
Li	      6.25902      4.39686     10.80912         0.049965     -0.040983     -0.026975
Li	      4.13042      6.45835      6.61517        -0.028867     -0.022563      0.032548
Li	      6.24538      6.42963      8.85501        -0.026716     -0.003562     -0.010372
Sc	      4.25758      4.21589      4.25241         0.136168     -0.089180      0.034865
Sc	      6.43886      4.26378      6.54726        -0.024031     -0.004414     -0.292847
Sc	      8.41275      8.63466      8.78400        -0.096035      0.029723      0.062704
V	      2.09776      2.13910      4.31898        -0.028699      0.160775     -0.354688
V	      6.13867      8.57108      6.50776         0.148718      0.044825     -0.002914
Cr	      8.45486      6.36878      6.53887        -0.005578     -0.045578     -0.004689
Cr	      8.35535      6.40581     10.80637         0.012090     -0.148943      0.041433
Fe	      0.06496      2.09406      2.13033        -0.120727      0.073475     -0.043038
Cu	      2.16222      6.40902      8.62694         0.063139     -0.087006      0.058378
O	      2.06923      2.09312      2.27730         0.183144      0.103751      0.547493
O	      4.32797      4.34151      2.21765        -0.126662     -0.037486     -0.082441
O	      4.13384      2.15726      4.49134        -0.015450     -0.061704     -0.017090
O	      6.27647      4.39183      4.49003        -0.064160     -0.509949      0.248604
O	      6.24629      2.18199      6.60017        -0.010048     -0.027522     -0.008213
O	      8.43119      4.36984      6.53310         0.065467      0.079232      0.031659
O	      2.14049      4.22384      4.44793         0.045216      0.495395      0.150821
O	      4.23858      6.34363      4.22426         0.114366      0.019308      0.086973
O	      4.15979      4.16250      6.50628        -0.013547     -0.035311      0.071110
O	      6.40767      6.46051      6.42662        -0.072931      0.048269     -0.155723
O	      6.28483      4.19317      8.60735        -0.008861     -0.021228      0.031740
O	      8.51584      6.41039      8.64810        -0.002500      0.019865     -0.068230
O	      2.15974      6.19872      6.28268        -0.008604      0.036510     -0.088931
O	      4.39974      8.44900      6.49441        -0.237850     -0.009920      0.001045
O	      4.15449      6.37097      8.66200         0.134996      0.068201     -0.034639
O	      6.34291      8.61440      8.46274        -0.089987     -0.141844     -0.217290
O	      6.43083      6.37386     10.79083        -0.058457      0.022848      0.003082
O	      8.42181      8.38895     10.80177         0.005015      0.010193     -0.019761
