# total energy = -243.98530314 eV
 
CRYSTAL
PRIMVEC
0.003459 6.363732 6.434611 
6.341223 0.028111 6.409473 
4.222099 4.220611 0.024254 
PRIMCOORD
36 1
Li	      6.42141      4.25491      2.27309         0.024395      0.021720     -0.033780
Li	      4.15929      2.06476      2.25643        -0.016769     -0.026185      0.050941
Li	      8.24615      4.27072      4.28132         0.057087     -0.007494      0.010002
Li	      6.38558      8.61837     10.62768         0.024524     -0.025366     -0.026944
Li	      2.12331      4.19741      2.16187         0.010777      0.004282     -0.025906
Li	      2.21065      2.01421      4.23533        -0.041244      0.002321     -0.062206
Li	      6.38582      4.28647      6.28472        -0.002957      0.001017     -0.064959
Li	      4.23114      6.33825      6.45068         0.030817     -0.047386      0.040814
Li	      8.37712      8.51793      8.60099         0.009613      0.025566      0.004846
Sc	      4.21776      4.21835      0.04458         0.013643      0.035345      0.024040
Sc	      6.38788      2.24427      8.54800         0.046616     -0.021927     -0.018959
Sc	      4.33141      4.18486      4.25469        -0.022728     -0.006207     -0.045547
V	      6.19509      6.41265      8.59941        -0.097329      0.007317      0.057214
V	      8.40640      6.31230      6.42543         0.075400     -0.026385      0.041978
Cr	      2.13740      8.47672      6.45002         0.011722     -0.024434     -0.004523
Cr	      6.34477      8.45610      6.50735        -0.025897      0.181628     -0.103745
Fe	      6.34604      4.26476     10.66202         0.036353     -0.106074      0.184992
Ni	      8.46132      6.39820     10.68009         0.014104     -0.010770     -0.030226
O	      2.08466      2.14313      1.99998        -0.014931     -0.024512      0.015935
O	      4.19271      4.31186      2.13851        -0.016117      0.009873     -0.030663
O	      4.20982      2.15021      4.42544        -0.029300      0.000249     -0.037446
O	      6.29032      4.25383      4.27876        -0.041829     -0.006450     -0.000078
O	      6.40247      2.11485      6.44249        -0.014217      0.006417     -0.014729
O	      8.48567      4.22286      6.41381        -0.003832      0.028368     -0.022554
O	      2.04742      4.29058      4.43311         0.052044     -0.149302      0.012420
O	      4.20334      6.38450      4.24682         0.102506      0.026003     -0.003263
O	      4.10799      4.11975      6.39255         0.025463      0.036095      0.005985
O	      6.34956      6.44223      6.59129        -0.014848      0.046354      0.039772
O	      6.34272      4.33940      8.66666         0.023024     -0.022350     -0.012429
O	      8.36617      6.35866      8.50327         0.047931      0.023858     -0.087577
O	      2.11144      6.36208      6.40833        -0.010083     -0.005554      0.095933
O	      4.21667      8.48865      6.38134         0.020547      0.024462     -0.012489
O	      4.43192      6.34513      8.58204        -0.097750      0.019998      0.043813
O	      6.34570      8.35890      8.50610        -0.026964     -0.112763     -0.073235
O	      6.40670      6.33077     10.63459        -0.079851     -0.011296      0.042626
O	      8.56795      8.44274     10.84308        -0.069921      0.133581      0.039946
