# total energy = -247.52218616 eV
 
CRYSTAL
PRIMVEC
-0.007556 6.388763 6.414394 
6.317950 0.004549 6.402177 
4.223506 4.262710 -0.008618 
PRIMCOORD
36 1
Li	      6.34658      0.06926      6.38081        -0.010416     -0.016125     -0.039879
Li	      2.11888      6.39451      8.54649         0.057692     -0.036845      0.015338
Li	      6.27600      2.19364      4.33282        -0.002126      0.010656      0.081863
Li	      6.26787      6.29952      4.41118         0.000901     -0.029335      0.054050
Li	      8.39783      6.47313      6.46778        -0.002683      0.023217      0.050851
Li	      6.21476      4.39023      6.38027         0.047915      0.024218     -0.021709
Li	      4.31557      6.29887      6.47313        -0.037155      0.027110      0.059853
Li	      4.30214      4.29360      8.39938         0.067286      0.054415     -0.076283
Li	      6.27542      6.33541      8.42831        -0.052216      0.009760      0.010860
Sc	      8.35383      4.30032      4.32111         0.031312      0.019140     -0.096086
Sc	      8.31319      6.46834     10.65708        -0.111551      0.075597     -0.012918
Sc	      6.38777      8.40764      6.38777         0.032604      0.028588      0.160225
V	      4.27915      8.46078      8.56194         0.129627     -0.094985      0.023722
V	      8.41925      4.27814      8.45013        -0.012121      0.043296     -0.014969
Cr	      2.10364      8.46421      6.42900        -0.015372     -0.010352     -0.035700
Cr	      4.31260      4.25656      4.29733         0.033820     -0.056746      0.036002
Fe	      6.28505      2.15146      8.46495         0.092058     -0.084520      0.071549
Fe	      4.21841      8.50277      4.29633        -0.079118      0.001247      0.018595
O	      2.22012      2.17158      2.02149        -0.105026      0.050600     -0.016165
O	      4.14222      4.20324      2.23791        -0.088150      0.094631      0.005678
O	      4.22582      2.18006      4.11745        -0.055160      0.048292      0.059183
O	      6.29535      4.26104      4.27550        -0.048924      0.014616      0.027868
O	      6.44157      2.06684      6.56246         0.010272      0.009316     -0.107150
O	      8.44758      4.14356      6.47088         0.000562      0.010685      0.033440
O	      2.19877      4.30880      4.22727         0.028787     -0.019210     -0.063139
O	      4.22351      6.29828      4.10372        -0.017146     -0.077966      0.013721
O	      4.20599      4.26654      6.31403        -0.046827     -0.009013     -0.035483
O	      6.34238      6.45342      6.41968         0.003667      0.023973     -0.019508
O	      6.41518      4.15317      8.63927         0.088104      0.079547     -0.101502
O	      8.51013      6.37937      8.53472        -0.058609     -0.100871     -0.008957
O	      2.11289      6.43219      6.32219         0.005769      0.005047     -0.034887
O	      4.17986      8.49820      6.46057        -0.026586     -0.005799     -0.045115
O	      4.15537      6.55818      8.63229         0.051921     -0.094594     -0.004122
O	      6.08672      8.60176      8.46579         0.027621     -0.040783     -0.040739
O	      6.26716      6.37435     10.67813         0.084563      0.101821     -0.012889
O	      8.38134      8.55531     10.77186        -0.025297     -0.078627      0.064403
