# total energy = -239.09494554 eV
 
CRYSTAL
PRIMVEC
-0.015437 6.380514 6.383732 
6.314734 0.033933 6.334043 
4.231652 4.242520 0.000810 
PRIMCOORD
36 1
Li	      4.20233      4.28801      0.22384        -0.031046      0.035508     -0.030881
Li	      6.09252      4.18631      2.19374         0.001757      0.021739      0.030298
Li	      4.27632      2.40095      2.14727         0.001186     -0.008546      0.025690
Li	     10.39851      6.25961      8.44026         0.003767      0.017466      0.005484
Li	      8.56776      4.44262      8.44194         0.012327      0.034688      0.009143
Li	      4.25896      4.21571      4.00097        -0.028052      0.021435      0.062288
Li	      8.42324      6.45554      6.43008        -0.048201      0.109086     -0.050710
Li	      6.29580      4.27966      6.46498         0.010902     -0.016813      0.037659
Li	      6.42324      6.27654      8.45005        -0.010182     -0.056830     -0.049113
Sc	      4.28805      6.42783     10.48584        -0.051444      0.099425     -0.020272
Sc	      6.32033      6.36135      4.21079         0.114651     -0.065624      0.014502
Sc	      6.27897      8.53546      6.48485         0.044437     -0.043817      0.078373
V	      2.01897      2.18931      0.21678        -0.019038      0.033435     -0.011671
V	      4.20472      6.37546      6.42905         0.125991     -0.082828      0.103649
Cr	      8.40348      6.38324     10.53103        -0.027620     -0.024287     -0.067420
Cr	      4.25814      4.21919      8.45977        -0.043222      0.029915     -0.134820
Ni	      6.28213      2.20373      4.15946        -0.031752      0.014085      0.009861
Ni	      6.32047      4.28877     10.49388        -0.007292      0.013395      0.045811
O	      4.19656      4.27018      2.10935         0.008785      0.040589     -0.018232
O	      2.09540      2.10642      1.95286        -0.001383     -0.002877      0.049111
O	      4.19522      2.07969      4.26213        -0.076163     -0.023388     -0.036445
O	      6.42362      4.31249      4.22006         0.028883      0.061229     -0.020388
O	      6.58076      2.12436      6.24859         0.042810     -0.015203      0.096478
O	      8.49098      3.98055      6.27623         0.032835     -0.020320     -0.000123
O	      2.04802      4.31093      4.31172         0.082230      0.023527      0.019533
O	      4.16940      6.39041      4.37134        -0.032720     -0.092422     -0.037064
O	      4.15278      4.32945      6.46384        -0.044541     -0.053306      0.044138
O	      6.28147      6.46692      6.27546        -0.041818     -0.000910      0.006315
O	      6.22366      4.24401      8.49569        -0.007146     -0.058431     -0.145590
O	      8.42608      6.47403      8.54340        -0.025574     -0.041948      0.074114
O	      2.14159      6.49385      6.27078        -0.025526     -0.017300     -0.029706
O	      4.07331      8.39317      6.35126        -0.028732      0.100523      0.051004
O	      4.24255      6.28281      8.43184         0.013852     -0.018630      0.015496
O	      6.38086      8.53739      8.49436         0.032504      0.026397     -0.120561
O	      6.38064      6.41930     10.59711         0.043996      0.000776     -0.011073
O	      8.43333      8.45683     10.56174        -0.019460     -0.039737      0.005120
