# total energy = -91.01844178 eV
 
CRYSTAL
PRIMVEC
-0.000011 2.094122 2.093931 
4.015038 0.000011 -0.000033 
-0.000065 8.493374 -8.492648 
PRIMCOORD
16 1
Li	      2.00471      2.20192     -0.11064        -0.000399     -0.025598      0.026846
Li	      2.00460      4.29317     -2.20140         0.000107      0.022830     -0.022209
Li	      4.01225      6.46079     -2.27366         0.000259     -0.000160     -0.000611
Li	      4.01210      8.27375     -4.08732        -0.001301     -0.012725      0.012260
Mn	      4.01234      2.10941      2.07542        -0.000079      0.029235     -0.028969
Mn	      4.01223      4.26852     -0.08316         0.001225     -0.002468      0.003624
Ni	      2.00472      6.32128     -4.22870        -0.000169      0.048267     -0.048787
Ni	      2.00469      8.38058     -6.28894        -0.000500      0.028141     -0.027775
O	      2.00472      8.42658     -4.24070        -0.000275     -0.038709      0.038045
O	      4.01226      8.63257     -6.54124         0.001517     -0.012166      0.012678
O	      2.00474      6.44882     -2.26197        -0.000399     -0.114292      0.114135
O	      4.01223      6.34546     -4.25282         0.000157     -0.002065      0.001565
O	      2.00475      4.19679     -0.01147         0.000539     -0.005891      0.006468
O	      4.01226      4.07599     -1.98462        -0.000581     -0.013157      0.011629
O	      2.00476     10.50161     -6.31605        -0.000441      0.085722     -0.087522
O	      4.01228      2.10582     -0.01472         0.000338      0.013037     -0.011375
