# total energy = -92.44525104 eV
 
CRYSTAL
PRIMVEC
2.181753 4.196825 2.106427 
4.263910 -2.052609 -2.099034 
0.027307 4.191994 -4.230493 
PRIMCOORD
16 1
Li	      2.18458      2.17543     -0.00182         0.045617      0.138821     -0.207211
Li	      4.36489      2.18060     -2.17257        -0.301900      0.072926     -0.005445
Li	      0.02606      2.17369     -2.18536         0.263614      0.234403     -0.171321
Li	      4.49840      4.31821     -4.33995         0.090316     -0.072728      0.052891
Mn	      0.14736      0.14134     -0.10532        -1.557799     -1.834526      1.329910
Mn	      2.20344      0.05750     -2.17081         0.388105      1.289923     -0.284651
Ni	      2.19704      4.32049     -2.12345         0.292593     -0.249159      0.008151
Ni	      2.21561      2.14573     -4.30114         0.077936      0.238271      0.816192
O	      4.31549      4.32424     -2.01423        -0.570484     -0.496258      0.460610
O	      4.44747      2.20300     -4.47495         0.152713      0.414609      0.039595
O	      4.57574      2.27261      0.01979         0.155843      0.457459     -0.630079
O	      4.21140     -0.06502     -2.16090        -0.617742      1.192888     -0.047940
O	      2.37629      4.29208      0.07060         0.429570     -0.228463     -0.912801
O	      2.24527      2.06745     -2.15970         0.291840     -0.375075     -0.319179
O	      2.26403      6.55017     -2.19960         0.369471     -0.530511     -0.276698
O	      2.08098      4.32427     -4.39294         0.490306     -0.252577      0.147977
