# total energy = -249.76268323 eV
 
CRYSTAL
PRIMVEC
0.030122 6.372242 6.493894 
6.213910 0.041779 6.481655 
4.157991 4.255622 0.012550 
PRIMCOORD
36 1
Li	      6.30800      6.47807     12.88555        -0.055635      0.007341     -0.062175
Li	      8.17446      2.14246      6.42038         0.041190     -0.027788     -0.029836
Li	      6.21933     10.59029      8.66587         0.024704     -0.046342     -0.004882
Li	      6.34158      8.49766     10.87155        -0.035280      0.003583     -0.040669
Li	      8.33175      4.27991      8.56949        -0.002575      0.049824     -0.107907
Li	      2.07086      2.14264      4.31275         0.039827      0.026822      0.025991
Li	      6.29951      4.19025      6.49630        -0.000960      0.002742      0.000260
Li	      8.24475      6.49984     10.90401        -0.021628      0.003427      0.028584
Li	      8.37080      8.45732      8.80521         0.029758     -0.049586      0.068992
Sc	      8.18368      4.20311      4.38501         0.023705     -0.084110      0.004829
Sc	      4.11408      6.39424      6.43487        -0.053632     -0.037340      0.087114
Sc	      6.34792      6.30640      8.72821         0.046856     -0.017277      0.064135
V	      4.03958      2.21389      2.16460         0.069712     -0.025100      0.091180
V	      4.23113      2.12802      6.47064        -0.015617     -0.023128     -0.004269
Cr	      0.05046      2.14255      2.16015        -0.016070      0.055147     -0.110865
Cr	      4.17740      4.26971      4.30865        -0.040982     -0.109973      0.036736
Cr	      2.05438      4.30504      6.48097         0.075024      0.008298     -0.060248
Co	      6.24551      4.28891     10.79004        -0.008442      0.040576     -0.012898
O	      2.19972      2.16443      2.12652        -0.061593     -0.017342      0.042560
O	      4.15007      4.24616      2.31082        -0.015823     -0.028051     -0.040147
O	      4.15196      2.20801      4.21686        -0.033615      0.115324     -0.051474
O	      6.16507      4.25469      4.33915        -0.043643      0.021422     -0.033004
O	      6.17502      2.18083      6.65102         0.037877     -0.021020      0.113010
O	      8.28404      4.45571      6.41542         0.022969     -0.143555      0.027998
O	      2.11298      4.25508      4.48368         0.038426      0.024441      0.068030
O	      4.20387      6.31533      4.27879        -0.027527      0.022936      0.040252
O	      4.10144      4.24731      6.39378        -0.050573      0.046067     -0.123057
O	      6.28375      6.49952      6.55338        -0.086077      0.032281      0.007725
O	      6.27016      4.20890      8.67196         0.032429      0.027928      0.016799
O	      8.40576      6.43647      8.56991         0.055328     -0.024511      0.018843
O	      2.12325      6.29465      6.51419         0.042343     -0.020824     -0.009776
O	      4.19646      8.50409      6.59636         0.022400     -0.044434      0.069809
O	      4.19074      6.50493      8.62641        -0.010660      0.069685     -0.039419
O	      6.04001      8.47883      8.54850        -0.034142      0.015255     -0.011066
O	      6.20921      6.40774     10.74588         0.011701      0.010015     -0.090112
O	      8.35857      8.56075     10.83341         0.000228      0.137268      0.018955
