# total energy = -245.78223311 eV
 
CRYSTAL
PRIMVEC
0.041500 6.494228 6.268695 
6.406761 -0.017390 6.328438 
4.259733 4.358414 0.000005 
PRIMCOORD
36 1
Li	      6.30940      0.14653      6.32291        -0.009160      0.033405      0.067241
Li	      6.41783      2.12820      4.31491        -0.015507      0.027554     -0.015563
Li	      6.19919      2.29114      8.31627         0.042673      0.044111      0.030531
Li	      8.38212      4.58581      8.32480         0.021123     -0.025045     -0.003384
Li	      8.64616      6.49858      6.48409        -0.009001      0.012003     -0.066152
Li	      6.36595      4.32379      6.53856         0.001745     -0.009614      0.000813
Li	      2.24904      4.23077      6.25652         0.023984     -0.053182      0.031410
Li	      8.69498      8.48987      8.35675        -0.008451      0.032934      0.019354
Li	      6.63526      6.28451      8.29083        -0.099856     -0.073962     -0.044838
Sc	      8.33051      2.21138      6.36473         0.030008     -0.008126     -0.030416
Sc	      4.34449      8.70532      8.28477        -0.011246     -0.047033     -0.016761
Sc	      4.34507      0.00352      4.29592         0.126424     -0.067334      0.008746
V	      6.43316     10.74432      8.34190         0.075383      0.138842     -0.142329
V	      4.21669      4.34083      4.25344        -0.084513     -0.079430     -0.018705
Cr	      6.39834      6.50888      4.23428         0.032997      0.047882     -0.138266
Cr	      6.47795      4.32359     10.44001        -0.049411      0.103974      0.011706
Cr	      4.34481      6.46672      6.29403        -0.096956      0.080126      0.267448
Cu	      8.43758      6.56116     10.36536        -0.050135      0.047084      0.196067
O	      8.53515      6.52526      8.48850         0.002935     -0.001599     -0.171572
O	      2.19592      1.95009      2.14277         0.004130      0.011826      0.066897
O	      4.42868      4.27871      2.16479        -0.083760     -0.012582      0.107575
O	      4.18434      2.16597      4.15868        -0.006762      0.083388      0.046722
O	      6.36646      4.45213      4.08256        -0.136210      0.026883      0.082349
O	      6.40608      2.12737      6.28123        -0.100793      0.045401      0.043417
O	      8.53784      4.26114      6.29141        -0.004930      0.027614      0.009859
O	      2.18381      4.16277      4.15681         0.232414     -0.213522      0.043048
O	      4.34246      6.54325      4.28056         0.098384     -0.135167     -0.057604
O	      4.29497      4.47118      6.18002        -0.031111      0.042481     -0.235513
O	      6.31486      6.51151      6.20346         0.035295     -0.019947      0.027621
O	      6.44675      4.29209      8.52644        -0.024985     -0.011189     -0.021925
O	      2.26773      6.54544      6.36480         0.027565     -0.001260     -0.021492
O	      4.28764      8.55605      6.25207         0.030829     -0.086302     -0.064504
O	      4.20691      6.56507      8.35140         0.065569      0.015048     -0.060727
O	      6.41965      8.93688      8.41953         0.055333     -0.086329     -0.009836
O	      6.45262      6.35320     10.49397        -0.090608     -0.051798      0.042721
O	      8.69245      8.76593     10.54602         0.006604      0.162866      0.016061
