# total energy = -245.50382082 eV
 
CRYSTAL
PRIMVEC
0.027420 6.449208 6.273034 
6.346830 0.016578 6.283848 
4.251903 4.327389 -0.009241 
PRIMCOORD
36 1
Li	      4.19222     10.54290      6.30692        -0.033664     -0.023147      0.019827
Li	      2.36114      8.63542      6.22592        -0.088786      0.005998     -0.000549
Li	      4.27498      8.60343      8.14498        -0.021775     -0.018604      0.080920
Li	      8.60608     10.77743     10.55059         0.004700     -0.038084     -0.010132
Li	      8.54348      4.37271      8.28264         0.056662      0.005481      0.040859
Li	      8.55952      6.33919      6.29649         0.013808     -0.048299     -0.005818
Li	      4.38098      8.64959      4.35941         0.080466     -0.021796     -0.137282
Li	      2.05945      6.46740      4.32983        -0.045248      0.056652      0.079259
Li	      6.14000      8.75391      6.20832         0.043236      0.030260     -0.020374
Sc	      4.15913      4.35403      4.24986        -0.061921     -0.069163     -0.078304
Sc	      6.58438      4.30155      6.26097         0.106281      0.011050     -0.037481
Sc	      4.22433      4.30479      8.32996        -0.008025      0.002886     -0.007791
V	      6.36520      8.47866     10.54761        -0.164265      0.006499      0.012593
V	      2.16032      2.22110      4.19460         0.088676      0.023139     -0.001268
Cr	      2.14206      6.47674      8.28733        -0.040321      0.032702      0.086083
Cr	     10.58844      6.45161      8.33626         0.014022      0.009471     -0.015191
Cr	      6.37493      6.48013      8.34485        -0.003156      0.019723     -0.002584
Ni	      4.19786      6.61086      6.25145         0.035028     -0.070948     -0.087125
O	      2.00767      2.01731      2.19916        -0.001699      0.023827     -0.055996
O	      4.36090      4.46101      2.10435        -0.029359      0.030453      0.005435
O	      4.37481      2.24648      4.19276         0.014080      0.021522      0.020776
O	      6.35026      4.36959      4.14249         0.009937     -0.042576      0.003013
O	      6.32166      2.22130      6.26922        -0.001996      0.009843      0.043801
O	      8.50490      4.33579      6.28783        -0.084179     -0.022916      0.000184
O	      2.15914      4.15127      4.13232         0.006595      0.081400      0.022856
O	      4.29760      6.46223      4.07373        -0.013818      0.013168     -0.102113
O	      4.32154      4.40364      6.27523         0.030190     -0.021685      0.070123
O	      6.36344      6.43113      6.24842         0.130949     -0.020968      0.072204
O	      6.32546      4.35873      8.36174        -0.017750     -0.018058      0.038725
O	      8.46644      6.54839      8.36361         0.015481     -0.005606     -0.002518
O	      2.18468      6.42494      6.37865        -0.158162     -0.022912     -0.111647
O	      4.25893      8.58643      6.24641        -0.005814      0.109520     -0.031411
O	      4.28723      6.42448      8.36030         0.010558     -0.037611      0.106284
O	      6.36645      8.58123      8.47160         0.013046     -0.004176     -0.019215
O	      6.34669      6.59583     10.32427         0.018748     -0.015972      0.003934
O	      8.17171      8.65804     10.43888         0.087476      0.008927      0.019926
