# total energy = -250.67529586 eV
 
CRYSTAL
PRIMVEC
-0.031542 6.536884 6.345077 
6.472745 0.055955 6.260193 
4.364877 4.349965 -0.013460 
PRIMCOORD
36 1
Li	      6.33010      6.57663     12.36322        -0.035566     -0.010303      0.115918
Li	      8.55949      2.42484      6.03439        -0.096194      0.075538      0.010582
Li	      8.91036     10.76176     10.62765         0.031125     -0.008694      0.052473
Li	      6.57450      8.47298     10.59509         0.020082     -0.012339      0.117491
Li	      8.61798      4.48103      8.20916        -0.075722      0.195263      0.013724
Li	      8.78187      6.36141      6.24065         0.110971     -0.028209      0.127790
Li	      6.30724      4.71581     10.48333         0.031514     -0.015576     -0.032558
Li	      8.34227      6.71208     10.52707         0.014873     -0.020190     -0.144117
Li	      6.47118      6.58417      8.65387         0.161403     -0.110934     -0.117685
Sc	      6.50774      4.31824      2.10901        -0.153379      0.104290     -0.152230
Sc	      2.23550      2.23331      4.19095        -0.155565      0.219743      0.273519
Sc	      4.25850      6.63836      6.23749         0.004791     -0.039024     -0.192438
V	     10.72581      6.60469      8.31351         0.346202      0.150777     -0.115134
V	      2.16020      4.36895      6.30329         0.016056     -0.048878      0.007866
Cr	      4.31504      8.72216      8.42834         0.029909      0.076622     -0.059285
Cr	      4.33430      4.37874      4.21126        -0.242231      0.176384     -0.014403
Cr	      6.56932      4.35471      6.28744         0.228862     -0.128014      0.378411
Cr	      8.71007      8.72230      8.49721         0.553128     -0.792619      0.028285
O	      1.98926      2.09014      2.16286         1.208205     -0.155677     -0.121927
O	      4.35608      4.46459      2.19918         0.134860     -1.243545     -0.044034
O	      4.30246      2.37497      4.09285        -0.096988     -0.047043     -0.217951
O	      6.38675      4.43323      4.23557        -0.108877      0.054807     -0.116793
O	      6.48936      2.34593      6.42399         0.006109      0.043059     -0.462991
O	      8.50278      4.41337      6.26583        -0.181309     -0.001756     -0.120213
O	      2.30067      4.31621      4.35545         0.248937     -0.256622     -0.336281
O	      4.41757      6.44299      4.15661         0.215875     -0.141304      0.118243
O	      4.33474      4.43868      6.27244         0.164457      0.130096      0.039760
O	      6.42861      6.56196      6.25507        -0.140691      0.000779      0.027811
O	      6.40484      4.27862      8.29376        -0.416421      0.507858      0.164098
O	      8.88187      6.66863      8.40595        -1.011673      0.403869     -0.032771
O	      2.18526      6.39003      6.40213         0.163771     -0.029066     -0.026295
O	      4.44260      8.67418      6.41009        -0.110891     -0.081476      0.266300
O	      4.21689      6.47403      8.34588        -0.100690      0.716897      0.183235
O	      6.61897      8.72703      8.28877        -0.654631      0.147903      0.298270
O	      6.44895      6.58376     10.50261        -0.094856      0.073297      0.040200
O	      8.65940      8.73970     10.38953        -0.015446      0.094086      0.043131
