# total energy = -232.61935742 eV
 
CRYSTAL
PRIMVEC
-0.026020 6.237586 6.388866 
6.505263 -0.007959 6.371652 
4.332665 4.143570 -0.001855 
PRIMCOORD
36 1
Li	      4.32158     10.31824      6.40506        -0.010062      0.020182     -0.048103
Li	      4.23992      8.29826      8.45163        -0.064128      0.013105     -0.032110
Li	      6.50623      8.32058     10.63402         0.050750      0.028859      0.009132
Li	      4.29582      6.21258      2.29004         0.016690      0.003497     -0.033005
Li	      2.09148      4.22919      2.29337        -0.066616     -0.016502     -0.015993
Li	      2.12873      2.21491      4.09410        -0.012263     -0.092368     -0.052331
Li	      0.13353      4.10557      4.21043        -0.041689      0.030117      0.050512
Li	      2.20386      6.11870      4.12048         0.013227      0.056982      0.016763
Li	      2.10604      4.18168      6.19027        -0.034791      0.011793      0.088015
Sc	      4.37899      0.10148      4.21794        -0.065590     -0.035888     -0.053507
Sc	      6.48495      4.06748      6.42370         0.000407     -0.006751     -0.052220
Sc	      4.30534      6.26862      6.28625         0.008237     -0.038062      0.073587
V	      8.64446      8.26522     12.71285        -0.010156     -0.018394     -0.005091
V	      6.26598      4.08903      2.14336         0.274976     -0.090648      0.038082
V	      6.58837      6.26479      8.56386        -0.080557      0.071001     -0.073819
Cu	      4.07424      4.11089      4.26939         0.100243     -0.017313     -0.137268
Ni	      4.37138      2.08370      6.40918         0.013477     -0.002423      0.013426
Ni	      8.69842      8.29003      8.61467         0.008588      0.070112      0.028010
O	      2.14748      4.13834      4.23550        -0.168884     -0.010080     -0.019510
O	      2.18385      1.79693      2.02403        -0.013042      0.054621      0.053734
O	      4.55822      4.06889      2.07535        -0.295749     -0.051107      0.037720
O	      4.30833      2.14541      4.35439        -0.020876      0.034180     -0.115011
O	      6.57094      4.16231      4.05969         0.105318      0.019618      0.122692
O	      6.57527      2.04965      6.41526         0.043072     -0.006630     -0.040681
O	      8.59961      4.14667      6.32097         0.038591     -0.061474      0.027217
O	      4.28825      6.08587      4.28849        -0.020553      0.036668     -0.096889
O	      4.42930      4.13540      6.53531         0.006432      0.082386     -0.025047
O	      6.45116      6.23952      6.59584        -0.015175      0.032491      0.020511
O	      6.50134      4.28358      8.49110         0.087996     -0.045908      0.047503
O	      8.52335      6.25775      8.46336         0.009021     -0.076773      0.109121
O	      2.20253      6.19771      6.61958         0.017242     -0.073890     -0.113677
O	      4.14042      8.29648      6.36025         0.044523      0.012296      0.024329
O	      4.44162      6.24494      8.51447         0.108995      0.106010      0.037057
O	      6.58152      8.43476      8.52737        -0.079616      0.018451     -0.002981
O	      6.44843      6.30830     10.37407         0.041457     -0.017439      0.088466
O	      8.62051      8.36578     10.71676         0.010507     -0.040720      0.031370
