# total energy = -233.50637677 eV
 
CRYSTAL
PRIMVEC
0.007905 6.238293 6.404758 
6.325832 0.009217 6.403594 
4.227340 4.168518 -0.004130 
PRIMCOORD
36 1
Li	      6.44139      6.30784     12.71064         0.005996      0.051367      0.002471
Li	      2.12500      6.23078      8.46260        -0.045554      0.051888     -0.015542
Li	      4.28632      6.23168     10.67056        -0.008044     -0.005740      0.046837
Li	      6.41610      8.20584     10.75984        -0.014370      0.032487      0.042991
Li	      2.15888      4.16553      2.16805        -0.010761      0.004440     -0.018104
Li	      4.16669      4.17236      4.29498         0.000659     -0.006188      0.005841
Li	      6.30159      4.15146      6.39625         0.026694     -0.069715     -0.003432
Li	      8.32163      6.29617     10.78868        -0.011304      0.045863      0.027151
Li	      6.38606      6.22884      8.62203         0.036587     -0.013755      0.024657
Sc	      4.28417      2.15595      2.15008        -0.018144      0.100732      0.018056
Sc	      4.25998      6.17098      2.11912         0.038126     -0.042035     -0.164721
Sc	      6.32617      4.30554     10.70955        -0.099815      0.121164      0.012447
V	      6.34698      6.09380      4.30014         0.010107     -0.329338     -0.111066
V	      8.44977      6.09423      6.36455         0.228823     -0.293979      0.043449
V	      4.16851      4.24538      8.55469         0.125137      0.069108      0.129101
Cu	      8.36027      2.09909      6.31608         0.056501      0.308376      0.033417
Cu	      2.12050      4.23208      6.38523        -0.069743      0.086031      0.010818
Ni	      4.21114      6.20367      6.36092         0.005573      0.033523     -0.008837
O	      2.14572      2.13134      2.27748         0.028308     -0.026483      0.069654
O	      4.22567      4.14422      2.15607        -0.014862     -0.030178      0.025925
O	      4.14338      2.08933      4.35424        -0.046516     -0.015601     -0.064342
O	      6.34598      4.33148      4.25804        -0.001625      0.232458      0.000908
O	      6.21415      2.11985      6.42793        -0.213067      0.024292      0.036794
O	      8.41917      4.29949      6.42755        -0.028539      0.290623      0.014529
O	      2.08840      4.02794      4.37376        -0.015488     -0.041166     -0.100631
O	      4.33042      6.23602      4.27409         0.024611      0.037730     -0.077404
O	      4.14902      4.07431      6.49029         0.086821     -0.086073     -0.034982
O	      6.41531      6.17664      6.28187        -0.043441      0.087644     -0.000522
O	      6.18643      4.12652      8.59384        -0.000459      0.013339      0.055266
O	      8.45370      6.38326      8.37873         0.028464      0.060098      0.039647
O	      2.19108      6.39697      6.37587        -0.091649     -0.454720      0.001724
O	      4.25314      8.30075      6.44984         0.059388      0.074501     -0.037611
O	      4.24770      6.11381      8.45117        -0.073405     -0.104321      0.011714
O	      6.39994      8.33868      8.42296        -0.056625      0.008661      0.092467
O	      6.33472      6.24520     10.67519        -0.004346     -0.132371     -0.062125
O	      8.41707      8.35621     10.48765         0.105963     -0.082662     -0.046544
