# total energy = -232.83593244 eV
 
CRYSTAL
PRIMVEC
0.068800 6.314910 6.453954 
6.374708 0.040551 6.482015 
4.234656 4.213120 0.042655 
PRIMCOORD
36 1
Li	      6.45175      6.37512     12.87092         0.010024      0.016711     -0.080980
Li	      6.46920      8.38789     10.74633         0.005360     -0.016192     -0.019683
Li	      8.49452      4.28898      8.70877         0.001896     -0.060604      0.110547
Li	      4.22150      4.30071      4.46573         0.022865      0.016269     -0.002319
Li	      6.26207      4.32741      6.47263        -0.007650     -0.065420     -0.031925
Li	      8.50639      6.33062     10.75450        -0.043517     -0.036437     -0.048047
Li	      2.30582      4.24835      6.44823        -0.013220      0.013806     -0.015359
Li	      4.37581      6.13243      6.45439         0.039059      0.019359     -0.067589
Li	      4.20012      4.28603      8.51475         0.014521     -0.003062     -0.002830
Sc	      4.37589      8.45703      8.57533        -0.149460      0.147516     -0.001201
Sc	      4.25624      6.25427      2.22718         0.139095     -0.014745      0.129599
Sc	      4.23683      2.23759      6.50812         0.111474     -0.065989     -0.008739
V	      8.51514      8.34767     12.88134        -0.067461     -0.026720     -0.015611
V	      8.37948      4.20558      4.40193         0.415119     -0.121832      0.257863
V	      0.12556      4.19435      4.30859        -0.024454      0.216009      0.009974
Cu	      6.43489     10.46889      8.63920        -0.147824      0.031087      0.017871
Cu	      6.38452      6.37695      4.48821         0.050557     -0.097977      0.118107
Cu	      6.45106      6.35732      8.64658        -0.027036      0.037262      0.129539
O	      2.15742      2.11710      1.93626         0.049703      0.163634     -0.138354
O	      4.36210      4.19268      2.24510        -0.180013     -0.061029     -0.036092
O	      4.20559      2.03568      4.31109         0.177442     -0.043054     -0.011273
O	      6.57097      4.35652      4.44461        -0.413119     -0.042100     -0.016840
O	      6.45406      2.14679      6.53426        -0.128619      0.050222      0.038510
O	      8.53962      4.13730      6.35067        -0.026175      0.175286     -0.380888
O	      2.01380      4.14658      4.37956         0.072580      0.265492      0.020008
O	      4.39385      6.41794      4.33820        -0.242645     -0.141771     -0.013002
O	      4.28540      4.18711      6.43712        -0.034458      0.015757      0.112107
O	      6.43071      6.31067      6.72500        -0.117383      0.084771     -0.139959
O	      6.39140      4.19200      8.93807        -0.008311      0.026180     -0.127382
O	      8.61906      6.27883      8.63851         0.063131     -0.007249     -0.049630
O	      2.14845      6.55184      6.28029         0.026476     -0.186654     -0.036405
O	      4.17702      8.47628      6.34138         0.040625     -0.017375      0.131800
O	      4.17876      6.34622      8.76597         0.064948     -0.080029      0.172754
O	      6.38777      8.48878      8.66438         0.192214     -0.182142     -0.088717
O	      6.25666      6.27875     10.64937         0.149790      0.040211      0.163133
O	      8.58253      8.56005     10.89126        -0.015532     -0.049194     -0.078986
