# total energy = -224.07752330 eV
 
CRYSTAL
PRIMVEC
0.020753 6.457141 6.313960 
6.375453 0.028800 6.306066 
4.260392 4.309680 0.008871 
PRIMCOORD
36 1
Li	      8.38803      2.26046      6.29664         0.003172     -0.077730     -0.092492
Li	      6.32500      4.35891      2.14393         0.153535      0.020815     -0.029807
Li	      8.50227      4.34086      4.29244        -0.025840      0.023009     -0.128869
Li	      4.29149      6.31073      2.09163        -0.049214      0.084970      0.047721
Li	      8.55249      4.39095      8.33258        -0.067922      0.075606      0.117308
Li	      4.28600      4.31081      4.20011        -0.008544      0.029711      0.112800
Li	      8.59313      6.40370      6.41146        -0.009401      0.049078      0.026325
Li	      8.45369      8.58165      8.40956        -0.002257     -0.038952      0.023546
Li	      6.47138      6.53482      8.37247        -0.038044      0.033724     -0.090049
Sc	      4.24510      2.26545      2.11646         0.085590     -0.698084      0.189959
Sc	      6.49038      4.28272      6.39615        -0.335722      0.105708     -0.153497
Sc	      6.31890      4.36745     10.40670        -0.197255     -0.458651     -0.167835
Sc	      8.47951      6.47666     10.39177         0.299627      0.178521     -0.181519
Cr	      4.25015      6.38857      6.38401         0.058728      0.058284      0.423144
Cu	     10.46640      4.45610      6.36280         0.245818     -0.053279     -0.234459
Cu	      6.38099      2.24957      4.16982         0.076752      0.169882      0.042576
Cu	      2.16993      2.10993      4.17359        -0.024355      0.026378      0.464581
Cu	      6.44905      8.60430      6.35714         0.122712     -0.215735      0.142393
O	      4.39070      2.21308      4.21239         0.128681      0.093721     -0.414227
O	      6.38543      4.41198      4.21780         0.041079      0.288215      0.001277
O	      6.37718      2.25311      6.13872         0.098883     -0.045284      0.114445
O	      6.40705      8.63298      8.50886        -0.270481      0.088444     -0.052175
O	      2.16502      2.12174      2.30968         0.140616      0.049049     -0.294520
O	      4.25172      4.29588      1.95441        -0.147936      0.216609     -0.320141
O	      8.48587      4.28315      6.32132         0.430661     -0.068194      0.133030
O	      2.10601      4.27301      4.28554        -0.070819     -0.063354     -0.147673
O	      4.21369      6.51593      4.38057        -0.310646      0.097346     -0.005514
O	      4.21810      4.50534      6.31111         0.275813      0.207143     -0.001243
O	      6.31365      6.48586      6.17354        -0.115114     -0.140740     -0.187971
O	      6.36726      4.34400      8.40497         0.052400      0.020382      0.228107
O	      8.51380      6.46973      8.43493        -0.037926     -0.065761      0.299386
O	      2.25746      6.29511      6.34315        -0.139133      0.184927     -0.038262
O	      4.37556      8.41627      6.30379        -0.278339     -0.115431      0.102721
O	      4.35728      6.53458      8.20419        -0.071133      0.180859     -0.353778
O	      6.39064      6.43392     10.66774        -0.124029     -0.052627      0.426891
O	      8.46805      8.60223     10.53059         0.110041     -0.188556     -0.002176
