# total energy = -229.66485204 eV
 
CRYSTAL
PRIMVEC
0.010029 6.358194 6.272074 
6.334442 -0.019519 6.301915 
4.237497 4.272841 -0.027591 
PRIMCOORD
36 1
Li	      2.20991      8.44780      6.26118        -0.030814     -0.030812      0.000982
Li	      2.21827      6.24561      8.33546        -0.055219      0.023407     -0.011147
Li	      6.35212      2.26955      8.30167        -0.004578     -0.016026     -0.003068
Li	      6.35591      4.25667      6.47361        -0.062016      0.009511     -0.054382
Li	      6.22548      4.31220     10.40838         0.015342      0.022578      0.010626
Li	      6.42326      8.45502      6.37447         0.015350     -0.026064     -0.010834
Li	      4.10356      6.36427      6.27278        -0.056692      0.014447      0.029823
Li	      4.21022      4.33651      8.29553        -0.003746     -0.009727     -0.053868
Li	      6.38267      6.21002      8.28899         0.003004      0.009543     -0.000773
Sc	      4.24139      4.25602      0.00805         0.291010      0.041137      0.096721
Sc	      4.26987      8.34248      8.23208        -0.007799      0.144333      0.111320
Sc	      6.44232      8.55374     10.40761        -0.118258      0.082596     -0.019571
Sc	      6.25496      6.43200      4.23311         0.031609     -0.131262      0.002699
Mn	      2.14760      6.36576      4.13936        -0.195770      0.205141      0.117136
Fe	      4.21983      4.29149      4.24834         0.301733     -0.270922     -0.115054
Co	      4.23793      6.34135     10.44037        -0.074894     -0.089992     -0.247530
Ni	      2.06844      4.23592      2.11276         0.232387      0.018728     -0.028003
Ni	      8.44634      6.38492      6.30653         0.066176      0.153030      0.091327
O	      6.54421      4.21431      8.43360        -0.203617     -0.001783     -0.026266
O	      2.11777      2.25815      2.11666        -0.015204     -0.041201     -0.064961
O	      4.10406      4.18274      2.14515        -0.022754     -0.027006     -0.114718
O	      4.21192      2.04959      4.15871        -0.001599      0.479751     -0.044186
O	      6.36538      4.29898      4.12522        -0.852051      0.046624     -0.013333
O	      6.14267      2.07490      6.26684         0.107976      0.001523      0.069884
O	      8.45131      4.41310      6.11854        -0.031804     -0.131386      0.143327
O	      2.23713      4.24918      4.19161        -0.158684     -0.100594      0.030327
O	      4.21349      6.23814      4.25733        -0.214112      0.222680      0.004310
O	      4.27037      4.05370      6.18486        -0.020212      0.029536      0.226338
O	      6.54427      6.39649      6.25307        -0.158844     -0.019387      0.057173
O	      8.47244      6.19923      8.51291        -0.022444      0.049209     -0.084586
O	      2.06932      6.43137      6.06785        -0.006920      0.019438      0.094592
O	      4.22525      8.54994      6.26342        -0.022400     -0.025508     -0.061603
O	      4.22053      6.32535      8.49858         0.008644     -0.140153     -0.034731
O	      6.29539      8.54874      8.40026         0.036571     -0.062016     -0.098901
O	      6.28658      6.41405     10.49559         1.089307      0.044186      0.033681
O	      8.46016      8.60746     10.46071         0.141322     -0.493560     -0.032752
