# total energy = -92.14730744 eV
 
CRYSTAL
PRIMVEC
2.192396 4.217297 2.116702 
4.284709 -2.062621 -2.109273 
0.027441 4.212443 -4.251129 
PRIMCOORD
16 1
Li	      2.20594      2.19671     -0.00184         0.056674      0.163516     -0.235553
Li	      4.40757      2.20193     -2.19382        -0.341898      0.084473     -0.009527
Li	      0.02632      2.19495     -2.20673         0.308765      0.277887     -0.206967
Li	      4.54239      4.36044     -4.38239         0.101209     -0.079281      0.063539
Mn	      0.18054      0.17379     -0.12705        -1.832320     -2.263565      1.588441
Mn	      2.22499      0.05806     -2.19205         0.428204      1.488243     -0.333775
Ni	      2.21852      4.36275     -2.14422         0.318079     -0.287376      0.007479
Ni	      2.23728      2.16671     -4.34321         0.067297      0.259078      0.959937
O	      4.35770      4.36653     -2.03393        -0.665156     -0.556447      0.524631
O	      4.49097      2.22454     -4.51872         0.225126      0.495799      0.063552
O	      4.62049      2.29484      0.01998         0.143421      0.525888     -0.729091
O	      4.25259     -0.06566     -2.18203        -0.696122      1.509247     -0.048681
O	      2.39953      4.33406      0.07128         0.478995     -0.265392     -1.109578
O	      2.26723      2.08767     -2.18082         0.338558     -0.389902     -0.376309
O	      2.28618      6.61423     -2.22111         0.450465     -0.661041     -0.335401
O	      2.10134      4.36656     -4.43590         0.618702     -0.301127      0.177304
