# total energy = -234.17745185 eV
 
CRYSTAL
PRIMVEC
-0.034615 6.350134 6.253283 
6.382897 -0.023589 6.241948 
4.251231 4.221998 -0.012080 
PRIMCOORD
36 1
Li	      8.39763      2.19618      6.27117         0.021765     -0.006446     -0.009964
Li	      8.42463      4.12332      4.20907         0.085012      0.011834     -0.041186
Li	      6.42849      2.30429      4.17555         0.023720      0.013210     -0.011676
Li	      0.10941      2.07941      2.02317        -0.060602     -0.031255     -0.000319
Li	      2.16120      4.11112      2.05071         0.048376      0.054503      0.039087
Li	      4.35072      4.22046      4.11323        -0.012241      0.008178     -0.152605
Li	      6.40652      4.15404      6.13274        -0.046930      0.018277      0.010316
Li	      2.12057      4.21638      6.23727        -0.032965      0.011319      0.009996
Li	      4.31183      6.22435      6.24214         0.055763     -0.052986     -0.006453
Sc	      4.18464      2.19779      2.03426         0.149640      0.078185     -0.093506
Sc	      4.34996      2.06846      6.15319         0.038143      0.211729      0.005209
Sc	      2.17189      6.29011      4.28965        -0.116821     -0.007106     -0.110956
Sc	      6.33128      6.29268      8.28768         0.051069     -0.121295      0.150925
Mn	      4.22526      4.22954      8.32553         0.100835      0.020287      0.090886
Fe	      6.29809      6.31571      4.16967        -0.057440      0.204897      0.132524
Co	      6.35531      0.00898      6.24201         0.027024     -0.320823     -0.292610
Co	      4.20458      8.44937      4.19192        -0.020838      0.004383      0.061664
Cu	      6.30032      4.27932      2.07789         0.012507     -0.047436     -0.118190
O	      6.33972      4.33962      4.05442         0.048808     -0.167225      0.255936
O	      2.15573      2.14447      2.16148        -0.095751      0.051064     -0.192976
O	      4.19301      4.18673      2.06838         0.074270      0.133585      0.501973
O	      4.14935      2.17468      4.12167         0.029104     -0.013606      0.029423
O	      6.38282      1.98041      6.16467        -0.007701      0.155086      0.046155
O	      8.65543      4.24624      6.23203         0.152956     -0.078963      0.055204
O	      1.92018      4.20912      4.16552         0.000434     -0.064252      0.021989
O	      4.24838      6.46295      4.24030        -0.044169     -0.048801      0.048028
O	      4.26614      4.18579      6.44633        -0.004093      0.059819     -0.158676
O	      6.44516      6.27266      6.21451        -0.050336     -0.036131     -0.001680
O	      6.17678      4.19432      8.46697         0.071347     -0.039374     -0.053518
O	      8.45323      6.49382      8.34060        -0.008794     -0.102266     -0.010715
O	      1.91124      6.35372      6.32290        -0.193926      0.051677      0.107866
O	      4.20040      8.58028      6.15737        -0.049371      0.003289     -0.146832
O	      4.27188      6.22450      8.29432        -0.093294     -0.018900     -0.022052
O	      6.46750      8.37841      8.37582        -0.032097      0.048449     -0.025288
O	      6.41849      6.14354     10.37210         0.020907     -0.048106     -0.245981
O	      8.59881      8.40316     10.27470        -0.084311      0.065200      0.128001
