# total energy = -233.11855621 eV
 
CRYSTAL
PRIMVEC
0.088718 6.293334 6.252912 
6.378096 0.044311 6.297796 
4.271980 4.245095 0.009815 
PRIMCOORD
36 1
Li	      8.66346      8.39091     12.32517        -0.049865      0.031268      0.036804
Li	      8.65453     10.43782     10.46365        -0.051875      0.046096      0.026712
Li	      6.65229      8.35577     10.45603        -0.023139      0.051966      0.011857
Li	      4.31305      6.28493      2.14125         0.030796     -0.024725     -0.097708
Li	      4.19351      4.30164      4.30321         0.025016     -0.082851     -0.017621
Li	      4.30446      2.12894      6.22586        -0.013490     -0.019627     -0.041951
Li	     10.57618      8.42693     10.47575         0.109044      0.057426     -0.031142
Li	      8.66899      6.49416     10.45682        -0.008140     -0.118331     -0.002561
Li	      2.27911      4.22270      6.19117        -0.049398      0.013977      0.001703
Sc	      6.48663      6.34390     12.32409        -0.002327      0.050633      0.046834
Sc	      6.49658     10.52304      8.37476        -0.146581      0.032536      0.098962
Sc	      4.29380      2.11564      2.16842        -0.018512      0.135976      0.241587
Sc	      6.40799      4.11875      6.24172         0.100689     -0.106408     -0.166865
Mn	      8.52306      4.33329      8.41621         0.017144     -0.002379      0.179759
Fe	      6.40358      6.43567      4.26946         0.173807     -0.000471      0.055976
Co	      4.32070      6.35778      6.26928        -0.356832      0.206915     -0.268137
Co	      6.43919      6.36967      8.41732         0.062830      0.024951      0.010550
Ni	      8.59592      8.41311      8.43494        -0.013630     -0.101515     -0.106131
O	      8.60177      8.46325     10.35060         0.020322      0.018120      0.143079
O	      2.14604      2.10352      2.18971        -0.048826      0.089703     -0.116534
O	      4.31121      4.21157      2.01406        -0.117257      0.051980      0.044060
O	      4.06809      2.15697      4.21482         0.311056     -0.028832     -0.080592
O	      6.43090      4.37104      4.19828        -0.023068     -0.189272     -0.009382
O	      6.35832      2.11823      6.29307         0.069921      0.043731      0.029808
O	      8.54178      4.26441      6.46370        -0.034962     -0.016103      0.005714
O	      2.19161      4.16137      4.02073        -0.103978      0.275983     -0.108308
O	      4.43922      6.34357      4.36074        -0.346086     -0.013530      0.048830
O	      4.33217      4.38821      6.39267         0.015909     -0.446443      0.030592
O	      6.26786      6.36332      6.37598         0.839981     -0.045033      0.125619
O	      6.46253      4.42171      8.37272         0.083043      0.007744      0.033520
O	      8.35107      6.35884      8.39220         0.097578     -0.139797     -0.044712
O	      2.28142      6.30573      6.28471        -0.543225     -0.015681      0.067355
O	      4.33408      8.37703      6.30435        -0.050683      0.334081      0.019847
O	      4.39213      6.31296      8.26659        -0.012930     -0.010352     -0.012278
O	      6.45927      8.38886      8.41235         0.021824     -0.063412     -0.058129
O	      6.39741      6.36703     10.34316         0.035844     -0.048323     -0.097119
