# total energy = -236.59260430 eV
 
CRYSTAL
PRIMVEC
0.013111 6.482759 6.422067 
6.216857 0.053830 6.382069 
4.180862 4.331361 -0.000908 
PRIMCOORD
36 1
Li	      0.04932      0.07736      0.11489        -0.000383     -0.066258     -0.039472
Li	      2.02879      2.07017      0.07096        -0.067139      0.014786     -0.022991
Li	      4.21449      8.72704      8.36690         0.000870     -0.006851     -0.032949
Li	      6.13493      2.29490      4.31459        -0.007630     -0.016264     -0.002160
Li	      0.11210      2.04441      2.12916         0.006596     -0.002796      0.019938
Li	      6.15112      6.45187      4.24689         0.009461     -0.013990     -0.009414
Li	      4.26506      4.30654      4.22068        -0.020077      0.023997     -0.008924
Li	      6.17512      4.27574      6.40124        -0.002345     -0.017695      0.057991
Li	      4.24696      6.61160      6.33171         0.025576      0.055370     -0.006760
Sc	      8.28131      4.40068      4.33866        -0.037243      0.066346     -0.007885
Sc	      2.20691      4.17029      2.14209         0.012841     -0.077425      0.076672
Sc	      2.18352      6.47258      4.44692         0.055325     -0.034185     -0.007171
Sc	      8.32177      8.68337      8.54054        -0.047016     -0.022627      0.012902
Mn	      4.18642      2.21594      6.35447        -0.064412      0.044929     -0.070344
Fe	      6.18591      6.56162      8.51249         0.001338      0.082730     -0.022364
Co	      2.01176      0.11374      2.10946        -0.212057     -0.020953      0.038051
Co	      4.24163      8.60590      4.37144        -0.089696      0.011188     -0.192604
Co	      6.22427      8.63098      6.36420         0.000063     -0.031421      0.171270
O	      2.12159      2.18556      2.02178         0.027601      0.120465      0.002735
O	      4.26275      4.32750      2.11669         0.053564     -0.010160     -0.033876
O	      4.10816      2.14291      4.49932         0.010095     -0.052892      0.102213
O	      6.24981      4.34988      4.00898         0.064498      0.022468     -0.095963
O	      6.02671      2.26847      6.39568        -0.040563     -0.004357      0.015688
O	      8.28043      4.58059      6.40423         0.032451     -0.006453      0.033768
O	      2.16901      4.40786      4.21291        -0.106101      0.038865      0.008192
O	      4.16087      6.57812      4.29309        -0.071945      0.020371     -0.005651
O	      4.02353      4.17395      6.42876         0.041759     -0.039976     -0.002955
O	      6.31548      6.64193      6.48711         0.083595     -0.071186      0.015241
O	      6.22579      4.52913      8.51374         0.001275     -0.071150     -0.050041
O	      8.27264      6.54155      8.48046         0.048093     -0.020178      0.024238
O	      2.10322      6.34920      6.52675         0.115441      0.102046      0.072762
O	      4.37492      8.66360      6.37535         0.158562     -0.017666     -0.136184
O	      4.11703      6.46171      8.58094         0.005885     -0.007312      0.021416
O	      6.24590      8.55533      8.52726         0.035880      0.038118     -0.034079
O	      6.23417      6.49677     10.54128        -0.013780     -0.011708      0.061398
O	      8.29520      8.69301     10.67567        -0.010382     -0.018179      0.047313
