# total energy = -234.04116754 eV
 
CRYSTAL
PRIMVEC
-0.033864 6.413113 6.528782 
6.392243 0.027264 6.467325 
4.290222 4.262686 -0.010114 
PRIMCOORD
36 1
Li	      4.20133      2.25007      2.47155         0.027603     -0.053055     -0.014436
Li	      4.11004      0.32234      4.42201         0.019681     -0.054077      0.087466
Li	      6.12909      2.20613      4.41157         0.049060     -0.027182      0.044446
Li	      4.32717      6.20522      2.08719         0.018670      0.034485      0.028034
Li	      2.34620      4.28809      2.10045        -0.024680      0.011813     -0.002026
Li	      2.42001      2.03626      4.19269        -0.074478      0.053093      0.036486
Li	      4.33375      4.04927      4.27254        -0.045420      0.056042      0.051621
Li	      4.37885      2.04073      6.22338        -0.034910      0.007690      0.080275
Li	      6.40358      4.31114      6.37788         0.029253      0.063974      0.000685
Sc	      8.40825      2.27228      6.53260         0.045513     -0.019935     -0.084612
Sc	      6.40397      4.31399     10.67481         0.047443      0.026421      0.033788
Sc	      6.42924      8.49098      6.51148        -0.042941     -0.015283     -0.074018
Sc	      4.30156      6.37145      6.51095         0.118550      0.056498     -0.101111
Mn	      8.50875      6.43314     10.74129        -0.022481     -0.034855     -0.034487
Fe	      6.28418      4.35287      2.49630         0.091323     -0.211817     -0.075127
Fe	      4.23358      4.29954      8.65977         0.060006     -0.117750      0.058571
Co	      6.37649      6.45224      8.67600        -0.019602     -0.025850     -0.028597
Cu	     10.57936      4.36810      6.56115         0.045644     -0.180397     -0.006795
O	      4.24045      2.17500      4.35007         0.021080      0.017436      0.007677
O	      2.15205      1.99751      2.09199         0.035215      0.010964     -0.033726
O	      4.42448      4.22062      2.17604        -0.106295     -0.006160     -0.028286
O	      6.41517      4.30028      4.32535         0.009608     -0.022265      0.052060
O	      6.40876      2.04966      6.50543         0.010593      0.118049      0.020507
O	      8.60104      4.24059      6.46901        -0.156859     -0.044894     -0.002885
O	      2.08485      4.45056      4.37058        -0.008171      0.024758     -0.000147
O	      4.06909      6.46272      4.35587        -0.003687     -0.015785      0.013796
O	      4.18571      4.33854      6.64068         0.022642      0.010104     -0.053741
O	      6.32270      6.46707      6.68512        -0.023656      0.010873     -0.052750
O	      6.25873      4.49546      8.65243         0.028885     -0.064785     -0.006498
O	      8.34826      6.48169      8.81111         0.158607      0.033472      0.071923
O	      2.11975      6.40464      6.28758         0.073255      0.020655     -0.014191
O	      4.27522      8.53768      6.36692        -0.019191     -0.086714     -0.008940
O	      4.31541      6.32279      8.63839        -0.153421      0.120267     -0.002111
O	      6.49713      8.49106      8.61153        -0.089672      0.273467     -0.007306
O	      6.55533      6.42971     10.61217        -0.050454      0.029171      0.040180
O	      8.57400      8.38232     10.76005        -0.036713      0.001572      0.004276
