# total energy = -236.09939464 eV
 
CRYSTAL
PRIMVEC
0.030945 6.202117 6.487737 
6.294367 0.016841 6.502276 
4.199624 4.147779 0.007683 
PRIMCOORD
36 1
Li	      6.34314      6.24330     12.97829        -0.023296      0.005752      0.011098
Li	      4.20949      2.07711      2.26028        -0.034200      0.025810      0.074090
Li	      6.24290      2.07499      4.47838        -0.035931     -0.003817      0.079736
Li	     10.42198      6.27710      8.68730         0.003141     -0.037981     -0.006936
Li	      6.27760      6.23909      4.37885         0.031012      0.003458      0.016119
Li	      4.28482      2.12771      6.52722         0.016169     -0.050037      0.015824
Li	      8.42885      6.30870     10.70107         0.007554      0.023254     -0.060880
Li	      4.26105      6.19299      6.49256        -0.058065      0.034063     -0.016141
Li	      8.45643      8.22515      8.65998        -0.016894      0.015710      0.032245
Sc	      2.08107      8.15874      6.43175         0.029151      0.008169      0.068605
Sc	      4.22115      0.12528      4.34137         0.029684     -0.013182      0.068008
Sc	      2.14908      4.13913      2.13884         0.168821     -0.104442     -0.056886
Sc	      4.24148      4.22177      4.38458        -0.071191     -0.006203     -0.182387
Mn	      6.28762      8.25079      6.48653        -0.085929      0.102674     -0.071983
Fe	      2.15417      6.21653      8.66097        -0.139542     -0.020882     -0.067582
Fe	      6.34646      6.23050      8.66965        -0.161591      0.126547      0.011235
Co	      4.24397      8.23800      4.32357        -0.019002     -0.100186      0.086601
Ni	      6.24299      4.12728      6.54192        -0.038353      0.126670      0.029938
O	      2.15600      2.01217      2.05261         0.017520      0.058634     -0.005571
O	      4.22868      4.15874      2.25414        -0.012625     -0.013087      0.052404
O	      4.23693      2.12477      4.34354        -0.035188     -0.001125      0.024512
O	      6.30956      4.15061      4.28177        -0.018436     -0.005598      0.072788
O	      6.34768      2.13614      6.46250         0.001208     -0.207633      0.013070
O	      8.34217      4.10898      6.53569         0.134398      0.021320     -0.000390
O	      2.05774      4.11757      4.42654        -0.030586      0.027519      0.040966
O	      4.22940      6.29748      4.33181        -0.004136      0.089721     -0.029093
O	      4.07668      4.15664      6.45877        -0.026483     -0.017962      0.066966
O	      6.26862      6.28877      6.62650         0.020060      0.065460     -0.073921
O	      6.32442      4.19536      8.74237        -0.043120     -0.033677     -0.087679
O	      8.30601      6.17762      8.67758         0.081895      0.055624     -0.051459
O	      2.08671      6.07449      6.60950         0.057891     -0.092940     -0.016090
O	      4.34337      8.27788      6.26379         0.020540      0.012276      0.040586
O	      4.16662      6.21009      8.74908         0.161417     -0.052052     -0.024985
O	      6.26039      8.28683      8.40522         0.024047     -0.046187      0.012160
O	      6.31837      6.12929     10.71251         0.015836     -0.011097     -0.022547
O	      8.59502      8.29756     10.88538         0.034223      0.015428     -0.042424
