# total energy = -232.54627542 eV
 
CRYSTAL
PRIMVEC
0.041645 6.383349 6.446025 
6.346864 0.054281 6.433478 
4.230159 4.246200 0.037461 
PRIMCOORD
36 1
Li	      2.24102      8.53359      6.44233        -0.055377      0.025203     -0.005752
Li	      4.20106      2.14407      2.16598        -0.015048      0.083869      0.029803
Li	      4.26157      0.08985      4.35396         0.025749      0.022268      0.033782
Li	      4.29745      6.33139      2.30314         0.013803     -0.023384     -0.001608
Li	      2.04340      2.29193      4.33623         0.055250     -0.013662     -0.029831
Li	      4.19830      4.19454      4.41170        -0.020665     -0.083978     -0.021616
Li	      4.25725      2.16655      6.27591         0.035476     -0.034906     -0.032101
Li	      4.34477      8.39283      4.48713        -0.000342      0.085441      0.044469
Li	      2.08921      4.20052      6.29702        -0.033354      0.020844      0.000281
Sc	      2.21095      4.12607      2.20299         0.147023     -0.028050     -0.132220
Sc	      6.37599      4.29184      6.33284         0.275925     -0.205435     -0.024811
Sc	      2.25536      6.35585      4.43572        -0.449003      0.011025     -0.010463
Sc	      6.30889      6.47245      8.56727         0.168380     -0.013141      0.080621
Mn	      6.27494      2.17266      4.31406        -0.109169     -0.088761      0.139083
Fe	      2.05996      0.14802      2.14910        -0.163430     -0.053968     -0.023027
Fe	      4.26974      4.27169      8.57050         0.013898     -0.180709      0.137643
Cu	      4.21937     10.54365      6.46830         0.026786      0.040624     -0.029827
Ni	      4.25997      6.43874      6.45590        -0.005449      0.712223     -0.425581
O	      4.26113      8.48251      6.46456        -0.033670     -0.261344      0.017728
O	      2.09687      2.07761      2.22387         0.019635      0.137503      0.023782
O	      4.28645      4.26098      2.01323        -0.090825      0.058564      0.351301
O	      4.43194      2.15935      4.26656         0.022364     -0.000410     -0.033193
O	      6.33276      4.12717      4.23327         0.021363      0.037795      0.082803
O	      6.34661      2.20392      6.20754         0.030149      0.240291     -0.115005
O	      8.49151      4.27574      6.50647        -0.232853      0.012247      0.070131
O	      2.16507      4.31589      4.23513        -0.051587     -0.028470      0.003051
O	      4.23815      6.40455      4.45067         0.190982     -0.062539     -0.060086
O	      4.30204      4.35147      6.58138        -0.074191     -0.496963      0.030890
O	      6.37438      6.38789      6.51227        -0.218023      0.021228      0.057682
O	      6.35206      4.34672      8.52603        -0.027410      0.009780      0.009822
O	      8.42770      6.44573      8.69631         0.028385     -0.003006     -0.002934
O	      2.07091      6.37305      6.52981         0.346394      0.039667      0.055358
O	      4.20099      6.34736      8.52413         0.012481     -0.006917      0.220539
O	      6.42827      8.56256      8.75588         0.021450      0.023703     -0.067819
O	      6.37643      6.58153     10.77497        -0.001644     -0.003546     -0.293814
O	      8.35606      8.52319     10.63056         0.126544      0.006914     -0.079081
