# total energy = -231.61965672 eV
 
CRYSTAL
PRIMVEC
0.009225 6.356495 6.537883 
6.270625 0.050071 6.495833 
4.195085 4.224954 0.019143 
PRIMCOORD
36 1
Li	      6.20469      4.30058      2.23073        -0.028078     -0.031307      0.046402
Li	      4.14484      0.05474      4.31485        -0.046049      0.034475      0.008048
Li	      2.12289      4.25738      2.33352         0.051962      0.002819      0.036522
Li	      2.05945      2.26215      4.27949         0.018259     -0.018391      0.003735
Li	      4.11396      4.25347      4.50139        -0.085062      0.002641      0.046888
Li	      8.31814      6.44984      6.54579         0.058360      0.032037     -0.016014
Li	      2.15309      6.20293      4.37794         0.037084     -0.001347     -0.013939
Li	      2.12718      4.24571      6.32479         0.053592      0.017629     -0.018877
Li	      4.28492      6.28107      6.39098         0.018389      0.006710     -0.080711
Sc	      2.18090      8.38348      6.53907        -0.164453     -0.036015      0.038770
Sc	      6.19605      2.14665      4.33756        -0.045700      0.033997      0.066850
Sc	      6.32377      4.38655      6.42810        -0.000077     -0.073051     -0.220907
Sc	      4.17451      4.31789      8.63446        -0.156129      0.023620     -0.071871
Mn	      4.20451     10.54740      6.58381        -0.018330      0.174097      0.021123
Fe	      4.08205      2.10282      2.28002         0.073812      0.063918      0.047707
Fe	      6.36486      6.37665      8.59480        -0.032930      0.113497      0.083421
Ni	      4.19772      6.27446      2.32885        -0.019015     -0.063107     -0.057148
Ni	      0.06115      4.21541      4.34377         0.756628     -0.329317     -0.059626
O	      1.94025      4.22016      4.34525         0.349813      0.271039     -0.016665
O	      2.12804      2.06780      2.09318        -0.039961      0.013839     -0.051724
O	      4.17030      4.19722      1.98162         0.025836     -0.115801     -0.186860
O	      4.17818      2.17893      4.19856         0.003059     -0.051373      0.082192
O	      6.27535      4.15840      4.43312         0.004485      0.054592      0.033115
O	      6.29235      2.04581      6.49043        -0.009227     -0.103204      0.020098
O	      8.47092      4.21845      6.48084         0.085008     -0.041136      0.032379
O	      4.21863      6.52046      4.32145        -0.323157     -0.427938      0.151637
O	      4.26736      4.29722      6.58492         0.056121     -0.024934      0.109393
O	      6.33764      6.36445      6.66121        -0.029028      0.034609     -0.138111
O	      6.27602      4.31254      8.66445         0.039276      0.025028      0.148516
O	      8.33444      6.44982      8.72570        -0.019641      0.053157     -0.021038
O	      1.90843      6.36198      6.54005        -0.019691     -0.043882      0.025733
O	      4.22349      8.62598      6.62274         0.016703     -0.081666     -0.095294
O	      4.31332      6.43839      8.69977        -0.006087     -0.036096      0.016126
O	      6.27042      8.39847      8.80888        -0.029832      0.080420     -0.045334
O	      6.27360      6.31310     11.02348        -0.164063      0.392846      0.059724
O	      8.43680      8.51983     10.87094        -0.411875      0.047593      0.015744
