# total energy = -239.32521617 eV
 
CRYSTAL
PRIMVEC
0.026259 6.493274 6.365341 
6.373780 0.047049 6.343751 
4.274835 4.339643 0.006347 
PRIMCOORD
36 1
Li	      4.13138      4.23287      0.04738         0.051525     -0.012953      0.032622
Li	      8.62910      2.44272      6.32900         0.008653     -0.012560     -0.011805
Li	      4.19545      2.22141      2.03029        -0.001483      0.033463      0.013057
Li	      8.58183      4.29691      4.42349         0.014886     -0.016159     -0.037070
Li	      8.45719      4.42826      8.24597        -0.008516      0.080528      0.078270
Li	      8.53055      6.32248      6.39396        -0.020963      0.001233      0.018168
Li	      6.66012      4.31226      6.40035         0.036316     -0.037617     -0.048263
Li	     10.60036      8.80778     10.64090         0.022510      0.009094     -0.001256
Li	      4.23712      6.63997      6.40269        -0.006494      0.013997      0.004729
Sc	      6.36394      2.13084      4.35281         0.010311      0.034342     -0.004041
Sc	      6.39351      2.24539      8.30525        -0.062570     -0.207975     -0.020147
Sc	      6.45673      6.50063      4.30111         0.080695     -0.017446      0.138077
Sc	      4.26779      4.35619      4.33502        -0.008632     -0.092281      0.075210
Mn	      2.19195      6.53647      8.42812         0.135724      0.069828     -0.080942
Fe	      8.50577      6.57250     10.62293        -0.038567     -0.044739     -0.138284
Fe	      6.27373      8.68290      6.39714         0.257860      0.053290     -0.051111
Fe	      4.33103      4.40779      8.40964        -0.187469     -0.045162     -0.015275
Co	      6.35854      6.50857      8.42413        -0.091755     -0.317345      0.081352
O	      8.56555      4.36282      6.36207         0.031718     -0.003886     -0.022463
O	      2.14238      2.04417      2.17128        -0.107474     -0.157013     -0.024729
O	      4.45975      4.41700      2.17369         0.187321      0.029543      0.038164
O	      4.25170      2.28031      4.22612        -0.054290     -0.042335      0.003167
O	      6.37428      4.36582      4.29115        -0.139216      0.099913      0.000814
O	      6.38202      2.22153      6.32041         0.048213     -0.040882      0.047694
O	      2.16515      4.32208      4.27152         0.097233      0.007951     -0.086198
O	      4.26953      6.45054      4.19328         0.058688     -0.008697      0.007855
O	      4.04748      4.33818      6.41661         0.007056      0.030026     -0.047031
O	      6.36820      6.67434      6.40335         0.002648     -0.025693     -0.150370
O	      6.28160      4.31838      8.40849         0.186919      0.377451      0.007269
O	      8.52952      6.59274      8.54884         0.125131      0.045406      0.055102
O	      2.14739      6.34001      6.25475         0.004509      0.102804      0.099439
O	      4.44266      8.68882      6.38179        -0.348217     -0.019507     -0.025802
O	      4.20357      6.41658      8.47598        -0.306721      0.041412      0.015579
O	      6.45864      8.82532      8.46837         0.060165      0.022143      0.120847
O	      6.49138      6.56817     10.46438         0.013833      0.080031     -0.028076
O	      8.50816      8.58364     10.52198        -0.059549     -0.030204     -0.044553
