# total energy = -236.35751988 eV
 
CRYSTAL
PRIMVEC
0.006252 6.456038 6.303682 
6.337547 0.000180 6.310573 
4.222801 4.306401 0.002015 
PRIMCOORD
36 1
Li	      8.51464      8.58492     12.36468        -0.048254      0.058745      0.043443
Li	      4.21486      2.16791      2.09923         0.024110      0.000230      0.007141
Li	      8.46910     10.63183     10.55703        -0.024443     -0.094395      0.016956
Li	      6.48991      8.58868     10.53024         0.002221      0.023626     -0.009177
Li	      2.21938      2.17732      4.22209        -0.036672     -0.044321      0.030784
Li	      4.18613      4.16425      4.26286         0.035683     -0.002404      0.048873
Li	     10.37336      8.68151     10.53759        -0.024474      0.040729     -0.023071
Li	      8.41293      6.67048     10.61656         0.012173      0.104532     -0.027569
Li	      8.39417      8.65550      8.59049         0.021913     -0.006698     -0.029961
Sc	      6.38959     10.71431      8.48978         0.072514     -0.119731      0.024894
Sc	      4.18966      6.49253      2.30963        -0.010491      0.090766      0.197847
Sc	      6.32285      4.24638      6.16633        -0.010945     -0.068861     -0.091755
Sc	      6.31183      6.53626      8.53693        -0.003088      0.073628      0.067297
Mn	      4.20882      2.12265      6.22251         0.055468      0.043755     -0.043610
Fe	      6.36024      6.40229     12.47663         0.063301     -0.003864      0.088397
Fe	      2.15815      4.20915      2.31354        -0.104840      0.005415     -0.204846
Fe	      4.13529      6.68991      6.18851         0.023054      0.100105      0.054870
Cu	      2.14388      4.33556      6.18434         0.041533      0.081061     -0.093676
O	      8.43333      8.64907     10.48098         0.034698      0.004463      0.010149
O	      2.04255      2.17947      2.13701         0.090186      0.115071      0.035040
O	      4.22279      4.34994      2.00250        -0.114857     -0.009884      0.058485
O	      4.21804      2.10460      4.41189         0.001546      0.016180      0.049925
O	      6.33343      4.28365      4.17974        -0.028155     -0.022978      0.033001
O	      6.16546      2.11076      6.36673        -0.123856     -0.004346      0.019866
O	      8.49884      4.41040      6.35762        -0.005940      0.187178      0.091381
O	      2.17339      4.30753      4.17643        -0.012392     -0.086079      0.086576
O	      4.21550      6.44286      4.33422         0.052000     -0.002899     -0.402984
O	      4.22585      4.10463      6.29861        -0.013907     -0.339579     -0.027423
O	      6.41346      6.32210      6.34316         0.107455     -0.166623     -0.005743
O	      6.43618      4.28568      8.36003         0.127511     -0.053986      0.104616
O	      8.42761      6.35356      8.30333         0.007379     -0.172470     -0.046760
O	      2.11760      6.58643      6.33561        -0.111215      0.149916      0.011208
O	      4.31336      8.67243      6.26243        -0.023117      0.032831     -0.005385
O	      4.24827      6.47227      8.17300        -0.015258      0.037650      0.043947
O	      6.33469      8.60398      8.25597        -0.049754      0.036425      0.130955
O	      6.34512      6.48183     10.56362        -0.011088     -0.003186     -0.243692
