# total energy = -242.03217693 eV
 
CRYSTAL
PRIMVEC
0.018455 6.461365 6.346374 
6.468436 -0.015559 6.379617 
4.283839 4.301694 0.017972 
PRIMCOORD
36 1
Li	      0.19498      6.33929      6.23911        -0.039534     -0.022697     -0.032610
Li	      2.20654      6.38452      8.37338         0.021728     -0.007509      0.003626
Li	     10.64834      6.49629      8.60415        -0.035134      0.059801     -0.002219
Li	      4.35807      2.24463      6.41662        -0.005228     -0.004963      0.019241
Li	      4.26594      8.58999      4.29315        -0.020691     -0.042067      0.002493
Li	      2.21136      6.43214      4.29029         0.033835      0.032768     -0.016163
Li	      2.16086      4.55227      6.30740         0.040125     -0.041162     -0.021364
Li	      4.20156      6.36327      6.36980         0.008093     -0.001102      0.013685
Li	      8.61969      8.53550      8.51226         0.003856     -0.012162      0.013264
Sc	      2.15103      8.44073      6.35976         0.006181     -0.022698     -0.003998
Sc	      4.40147      8.61641      8.36087        -0.065237      0.013223     -0.109323
Sc	      8.61749      4.40624      8.48004         0.002337      0.018813     -0.019881
Sc	      6.38772      6.47167      4.33599        -0.062610      0.066042      0.021349
Mn	      6.38801      4.25561      6.42741        -0.031510     -0.020839      0.019848
Fe	      4.37259      6.40320     10.57262        -0.065071      0.027141      0.098687
Fe	      6.48995      8.58689     10.59168        -0.040291      0.024866      0.030071
Fe	      4.26564      4.40870      4.27127         0.084015     -0.128534      0.017999
Fe	      6.52244      6.43920      8.45847        -0.069750      0.006827      0.056751
O	      2.22261      2.23201      2.14669         0.022775     -0.004578     -0.025450
O	      4.24977      4.25748      2.24862         0.038576     -0.032630     -0.057874
O	      4.32543      2.10591      4.23094        -0.002168      0.027594     -0.017532
O	      6.47896      4.26708      4.16436        -0.033118      0.027868      0.019006
O	      6.45150      2.26913      6.27774        -0.012180      0.019917      0.059616
O	      8.41579      4.24049      6.34819         0.025355      0.026178     -0.016399
O	      2.27321      4.23239      4.25163        -0.086818     -0.045441      0.011237
O	      4.36920      6.34505      4.23448         0.045013      0.119311      0.026867
O	      4.46148      4.26071      6.23399        -0.017734      0.018810      0.117233
O	      6.44028      6.26490      6.42058         0.007485      0.012895     -0.050021
O	      6.52487      4.40641      8.58378         0.000644     -0.086515      0.008207
O	      8.51124      6.42915      8.52437         0.122906     -0.010347      0.015527
O	      2.14222      6.48596      6.35893         0.010222     -0.001684     -0.006981
O	      4.22051      8.63433      6.37059         0.043366      0.010883      0.000939
O	      4.43505      6.50411      8.58818        -0.049918      0.023547     -0.089538
O	      6.46419      8.52168      8.55784         0.016194      0.030670     -0.071906
O	      6.36064      6.57331     10.59611         0.058551     -0.043999     -0.027973
O	      8.50755      8.70716     10.64056         0.045735     -0.038231      0.013588
