# total energy = -233.78168343 eV
 
CRYSTAL
PRIMVEC
0.019878 6.430440 6.259310 
6.286742 0.037571 6.242202 
4.243610 4.328156 -0.027055 
PRIMCOORD
36 1
Li	      4.18200     10.54256      6.31914        -0.004418     -0.018024     -0.108081
Li	      4.17316      2.22008      2.08087         0.027502      0.005286     -0.017637
Li	      4.26333      6.50159     10.33587         0.019718      0.071743      0.102302
Li	      4.31875      6.35736      2.24779         0.009774     -0.018787     -0.049944
Li	      2.18414      2.41830      3.99588         0.095888      0.068630      0.099253
Li	      4.13658      4.31241      4.08400         0.045636      0.031733      0.067072
Li	      0.03678      4.26981      4.13438        -0.051402     -0.015256      0.055116
Li	      2.04402      4.31504      6.11340        -0.009387     -0.007863     -0.011237
Li	      4.28228      4.38532      8.40700         0.007236     -0.020785     -0.000425
Sc	      6.22318      4.37127      2.04833        -0.063196     -0.077948     -0.034699
Sc	      4.23212      2.23381      6.26020        -0.072996      0.026705     -0.179607
Sc	      6.39652      4.33426      6.27524         0.012218     -0.088856     -0.239116
Sc	      4.23591      6.53748      6.22862        -0.000440     -0.037677     -0.306817
Mn	      6.32435      8.56740     10.36879         0.047278     -0.116872      0.206317
Mn	      2.11270      6.37050      4.16264        -0.126865      0.006595      0.210515
Co	      6.30030      6.51056      8.34490        -0.328345     -0.388454     -0.299256
Cu	      2.15349      2.19496      0.01251         0.011617     -0.053530      0.032824
Ni	      2.19303      4.27731      2.10876         0.020080     -0.059772     -0.021370
O	      2.09674      4.45706      4.12877        -0.016382      0.021966      0.004006
O	      2.07494      2.13018      2.05940         0.021456      0.036073      0.091194
O	      4.26413      4.33576      2.06410         0.010114     -0.015068     -0.016393
O	      4.37454      2.16155      4.21554        -0.020605      0.013125     -0.007604
O	      6.41351      4.08384      4.10988         0.015346     -0.002182     -0.017038
O	      6.35477      2.23000      6.12184        -0.042301      0.042356     -0.043270
O	      8.44720      4.48933      6.26663        -0.069618      0.189634      0.016975
O	      4.01045      6.46370      4.14718        -0.052542      0.011975      0.005260
O	      4.32371      4.31146      6.26233         0.022380      0.014495      0.043213
O	      6.35615      6.49619      6.28870         0.038749      0.051816     -0.876023
O	      6.35344      4.55738      8.33358         0.033871     -0.287867     -0.112800
O	      8.28155      6.49894      8.44607         0.093716     -0.022157      0.007249
O	      2.12003      6.28654      6.14359         0.019359     -0.228283      0.004738
O	      4.12882      8.55929      6.19427         0.123489     -0.012633      0.058875
O	      4.29699      6.44432      8.31726        -0.009485      0.009247      0.039951
O	      6.32948      8.51695      8.47252        -0.002258      0.502258     -0.007336
O	      6.38986      6.58556     10.27778         0.216330      0.349194      1.328037
O	      8.26956      8.39798     10.47641        -0.021517      0.019185     -0.024242
