# total energy = -232.72018998 eV
 
CRYSTAL
PRIMVEC
0.051210 6.507889 6.289142 
6.370724 0.051731 6.288500 
4.269512 4.361148 0.011957 
PRIMCOORD
36 1
Li	     10.63030     10.89212     12.55146         0.134737      0.012964     -0.019307
Li	      8.53544      2.38626      6.18880         0.078743     -0.137694     -0.057931
Li	      4.23347      2.28403      2.19798         0.131731     -0.086481     -0.099601
Li	      4.26526      6.54666     10.43034         0.003629      0.017308     -0.173311
Li	      6.48683      8.69184     10.49723         0.029274     -0.028016     -0.065508
Li	      4.33997      4.27343      4.10288         0.027993     -0.019628      0.041938
Li	      6.46891      4.26839      6.29574        -0.115228      0.010752      0.011105
Li	      6.32600      4.52278     10.46970        -0.054919      0.019645      0.011754
Li	      6.39430      6.40039      8.58062        -0.121190     -0.025976     -0.027545
Sc	      0.09292      2.20911      2.08549        -0.058409      0.128839      0.079008
Sc	      4.32246      2.13300      6.17214        -0.013914      0.511134     -0.023695
Sc	      2.06949      4.39051      6.22791        -0.116690     -0.027350      0.415468
Sc	      4.31211      6.55220      6.26507         0.025723      0.047028      0.365524
Mn	      6.36694      4.34274      2.24561         0.361612     -0.448675     -0.271603
Mn	      8.44399      6.65559     10.47658        -0.184353      0.250062      0.070306
Co	      8.49598      4.42581      8.40073        -0.254922     -0.054030     -0.218587
Cu	      6.48410      6.46321      4.20361        -0.175563     -0.012931      0.155185
Cu	      8.56518      8.74898      8.44154         0.134248     -0.055512     -0.002504
O	      6.37978      4.27972      4.05469         0.007323     -0.090257      0.126306
O	      8.55485      8.56001     10.40383         0.022539     -0.046702     -0.005055
O	      2.15464      2.02123      2.22285         0.035909      0.275200     -0.209924
O	      4.42630      4.42189      2.10131        -0.171254      0.042362      0.042187
O	      4.18249      2.18034      4.20533         0.098532     -0.010020      0.036643
O	      6.32548      2.25873      6.35646        -0.020560     -0.020568     -0.048001
O	      8.52851      4.43107      6.45848         0.091053     -0.015646      0.803959
O	      2.15968      4.60374      4.10466         0.092303      0.059949     -0.549628
O	      4.18300      6.50625      4.20686        -0.063479     -0.034606     -0.066944
O	      4.22836      4.35629      6.39254         0.040658     -0.142900     -0.080554
O	      6.40848      6.62907      6.19667         0.091518     -0.030564      0.157942
O	      6.43787      4.37200      8.40197         0.786211     -0.141397      0.014877
O	      8.53799      6.63708      8.49585        -0.044795     -0.916788     -0.082987
O	      2.18994      6.50298      6.18366        -0.036285     -0.003189     -0.061268
O	      4.34411      8.58718      6.32907        -0.024717      0.076697     -0.172135
O	      4.13139      6.41376      8.39481        -0.337935      0.628809     -0.067075
O	      6.45283      8.95172      8.34931        -0.527730      0.274394     -0.089349
O	      6.59339      6.59664     10.49202         0.128203     -0.006215      0.060310
