# total energy = -233.10080104 eV
 
CRYSTAL
PRIMVEC
0.034826 6.347643 6.258924 
6.364239 0.037764 6.255993 
4.266373 4.253302 0.001682 
PRIMCOORD
36 1
Li	      6.53576     10.54788      8.42337         0.049380     -0.033487     -0.004255
Li	      4.36193      8.36958      8.42049         0.041792     -0.033260      0.010847
Li	      4.24989      6.35785     10.29893        -0.028356      0.028808      0.007224
Li	      6.36983      6.35580      4.19421        -0.003862     -0.005633     -0.009164
Li	      6.35293      4.29708      6.23506        -0.029152      0.016381      0.025186
Li	      6.37285      4.26483     10.38500         0.006579     -0.021821      0.013118
Li	      8.47717      6.45585     10.41261        -0.028046      0.057712     -0.043605
Li	      4.25299      4.35440      8.40806         0.008559      0.018393      0.020991
Li	      6.29336      6.40212      8.45354         0.004525     -0.004530      0.036739
Sc	      0.10558      6.25114      6.20402        -0.038596      0.044692      0.014238
Sc	      4.25366      6.42432      2.23862         0.015894      0.048517     -0.060630
Sc	      2.09736      4.26398      2.23457        -0.040605     -0.016263     -0.001307
Sc	      8.39482      6.44675      6.20603         0.057339     -0.113427      0.008172
Mn	      8.45016      2.20203      6.19821         0.013678      0.021305     -0.006157
Mn	      4.31102      6.34854      6.29842        -0.028050      0.046229     -0.006036
Co	      6.40720      8.52561     10.33009         0.087310     -0.013061      0.073300
Ni	      4.32003      4.23439      4.14058         0.002527      0.011786     -0.077240
Ni	      2.14529      4.24277      6.23559        -0.028376      0.034450      0.132114
O	      2.07773      2.16916      1.89542         0.007342     -0.008872      0.026324
O	      4.24559      4.30131      2.03148         0.016462     -0.015409     -0.035919
O	      4.39841      2.16993      4.15006        -0.000793     -0.136863      0.013639
O	      6.35007      4.03724      4.19045         0.084570     -0.096489     -0.047233
O	      6.32634      2.09816      6.19461        -0.016812      0.017074      0.008240
O	      8.57461      4.30011      6.27376        -0.030838     -0.013703      0.031773
O	      2.21803      4.22378      4.22547        -0.069016     -0.006038     -0.118981
O	      4.32710      6.31754      4.26860        -0.014913      0.105244      0.043908
O	      4.21126      4.37396      6.24883         0.106487      0.009345      0.086068
O	      6.30081      6.41408      6.23342        -0.068461     -0.089271      0.000181
O	      6.42973      4.21946      8.40167        -0.055022      0.038996      0.000256
O	      8.57252      6.37333      8.26812        -0.013553      0.021808      0.030219
O	      2.29077      6.36895      6.25330         0.031453      0.044059     -0.018052
O	      4.30153      8.37320      6.19879         0.013629     -0.052933      0.002477
O	      4.29584      6.37298      8.12407        -0.015591      0.013907     -0.041971
O	      6.45288      8.49074      8.51258        -0.013543      0.015711     -0.021347
O	      6.41663      6.57531     10.46515        -0.013985      0.067975     -0.023684
O	      8.37267      8.54123     10.56262        -0.009956     -0.001333     -0.069433
