# total energy = -234.50671476 eV
 
CRYSTAL
PRIMVEC
-0.022208 6.337955 6.401503 
6.284449 -0.013595 6.393012 
4.194180 4.223647 -0.013800 
PRIMCOORD
36 1
Li	      6.29493      6.32770     12.67169         0.035772      0.020784      0.036313
Li	      8.27855      8.45242     12.67712        -0.078928     -0.061253      0.081340
Li	      6.33192      2.17092      4.26716         0.042638     -0.122985     -0.058199
Li	      6.25741      6.36259      4.36539        -0.073264      0.022305     -0.050077
Li	      6.33575      4.21020      6.32328        -0.009804     -0.028606      0.104181
Li	      2.01993      6.35021      4.47223         0.039223     -0.043054     -0.004921
Li	      6.25294      8.40630      6.35309        -0.028138      0.017777      0.069027
Li	      4.29674      6.36173      6.38220         0.017362      0.058818     -0.009454
Li	      6.18797      6.39189      8.42738         0.004113     -0.020310     -0.005112
Sc	      2.07653      6.37389      8.33988        -0.135278      0.203023     -0.202327
Sc	      4.22118      4.30397      4.38925        -0.075041      0.400582     -0.194953
Sc	      8.27904      6.18922      6.34316         0.062480      0.064505      0.131408
Sc	      4.15727      4.23892      8.51058         0.179966     -0.144408     -0.070735
Mn	      4.21427      8.40967      8.48010        -0.094727      0.093434     -0.213827
Mn	      6.30446      2.13040      8.50721         0.074091      0.161615      0.152907
Co	      2.09220      4.22492      2.15795        -0.116591      0.055737     -0.001912
Co	      4.17502      8.46366      4.44181         0.181346     -0.171564      0.316175
Cu	      8.34602      4.17059      4.25932         0.050062      0.004937      0.055692
O	      6.09999      6.11581     10.65582        -0.287120      0.290733     -0.086837
O	      2.04068      2.20836      2.13739        -0.049399     -0.877767      0.014285
O	      4.12507      4.32441      2.19322         0.766274      0.151274      0.113946
O	      4.23668      2.08570      4.23049         0.027673     -0.116609     -0.204052
O	      6.30234      4.23053      4.20266         0.168443     -0.073817      0.093218
O	      6.25912      2.10695      6.64746        -0.029641      0.018282     -0.132426
O	      8.39435      4.16738      6.65631        -0.100989      0.019806     -0.102255
O	      2.10603      4.25962      4.08078        -0.148176      0.010530      0.209853
O	      4.20051      6.40746      4.11056         0.021082     -0.324509      0.007676
O	      4.18996      4.13503      6.40121         0.035004      0.002152     -0.053651
O	      6.31959      6.30624      6.41322         0.113201     -0.082022     -0.067964
O	      6.36370      4.07122      8.65169        -0.933114     -0.154765      0.135776
O	      8.51885      6.27921      8.50461         0.138757      0.722847     -0.081701
O	      2.02326      6.33533      6.41845         0.024012      0.005345     -0.186756
O	      4.20358      8.42132      6.27685        -0.063448     -0.035829     -0.173738
O	      4.14066      6.33190      8.39965         0.089691     -0.215697      0.100357
O	      6.27910      8.49513      8.51618         0.019009     -0.047713      0.011104
O	      8.36489      8.49308     10.58212         0.133459      0.196418      0.267638
