# total energy = -236.88532599 eV
 
CRYSTAL
PRIMVEC
-0.019790 6.438225 6.225023 
6.478971 -0.061560 6.266618 
4.277803 4.278607 0.000642 
PRIMCOORD
36 1
Li	      8.58669      8.50787     12.44607         0.005894      0.014509     -0.004875
Li	      6.48057      6.33771      4.37062         0.048583     -0.048115     -0.053858
Li	      4.32952      4.25040      4.37858         0.065613     -0.063624     -0.050773
Li	      4.21043      2.28677      6.17690        -0.009663     -0.002278      0.003773
Li	      6.27466      4.30120      6.17286        -0.035679      0.000254      0.022809
Li	      2.29400      4.16690      6.16571         0.004043      0.004513      0.007352
Li	      4.39187      6.24683      6.12767         0.000799     -0.017157      0.006038
Li	      4.33257      4.17181      8.18729         0.009084     -0.014854      0.023107
Li	      6.47365      6.41605      8.18159         0.010950     -0.005067      0.012158
Sc	      6.51567      6.46524     12.41298        -0.070205      0.023831     -0.132849
Sc	      2.17196      6.39671      8.29463         0.135255     -0.011240      0.053088
Sc	      4.32851      8.49261      8.26910        -0.008941     -0.127447      0.040668
Sc	      8.51895      4.26606      8.30067        -0.079788      0.016457      0.038262
Mn	      8.51927      4.26303      4.24744         0.028749     -0.015440     -0.015271
Mn	      4.22725      8.52932      4.18376        -0.009693      0.017687     -0.013041
Co	      6.46405      2.13921      4.20920        -0.043672      0.070469      0.015789
Co	      6.44843      2.11977      8.29937        -0.059566      0.162651      0.092410
Co	      2.13104      6.44561      4.17017         0.005456      0.016090     -0.109310
O	      4.29073      4.27712      6.25383        -0.023925     -0.030216      0.001046
O	      6.41701      6.39583      6.26214         0.011745      0.001330      0.002161
O	      2.17097      2.14231      2.12773         0.017976     -0.022467     -0.002802
O	      4.27681      4.20856      2.04420         0.003020      0.052319      0.013999
O	      4.40579      2.00189      4.14315         0.011647     -0.050396      0.003940
O	      6.49016      4.20929      4.15558        -0.036900     -0.015959     -0.035935
O	      6.51447      2.06985      6.23174         0.046693     -0.067050     -0.061807
O	      8.66878      4.22600      6.18004         0.044878      0.007090      0.046021
O	      1.96289      4.46290      4.14795        -0.065231     -0.023970     -0.038981
O	      4.07175      6.58535      4.14372        -0.034702      0.070128     -0.042973
O	      6.48681      4.20980      8.51711         0.044566     -0.154376      0.015567
O	      8.66822      6.32197      8.50589         0.062805     -0.068551      0.134509
O	      2.09791      6.46576      6.18948        -0.017073      0.016236     -0.054409
O	      4.24019      8.63198      6.14300        -0.017911      0.049713     -0.024260
O	      4.23442      6.43676      8.53076        -0.082472      0.070341     -0.008509
O	      6.37960      8.60204      8.40042        -0.053768      0.071537      0.041766
O	      6.54025      6.26396     10.35888         0.018794     -0.029874      0.099920
O	      8.69236      8.43915     10.42157         0.072639      0.102925     -0.024730
