# total energy = -230.40732641 eV
 
CRYSTAL
PRIMVEC
-0.002643 6.469688 6.398117 
6.319615 0.016760 6.378927 
4.227804 4.315299 -0.003808 
PRIMCOORD
36 1
Li	      8.43461      8.66282     12.68206         0.023936      0.025510     -0.027280
Li	      4.13879      6.49435      2.26956         0.025692     -0.055246      0.011726
Li	      2.06715      4.41415      2.34306         0.030098      0.079669     -0.058712
Li	      1.93336      2.34190      4.18120        -0.046083      0.024772     -0.048818
Li	      4.09031      4.48408      4.25751         0.031101      0.036309     -0.030994
Li	      8.55728      6.37172      6.47085         0.007048     -0.055611      0.054988
Li	      0.05765      4.17879      4.12940        -0.021873      0.005550      0.047264
Li	      2.21463      6.39144      4.11186        -0.087115     -0.031723      0.022244
Li	      8.50950      8.52406      8.61508        -0.042868     -0.060100      0.048445
Sc	      2.09703      0.06107      2.13321        -0.131501     -0.018826     -0.097799
Sc	      4.12850      2.20949      2.15784        -0.053667      0.100765     -0.092624
Sc	      6.35027      4.33729      6.50605         0.113517      0.008853     -0.149358
Sc	      2.16093      4.24862      6.19413        -0.030357      0.056542      0.074021
Mn	      6.35234      2.16621      4.29783         0.231891     -0.096329      0.023794
Mn	      4.21237      6.47531      6.26443        -0.074265     -0.011644      0.017793
Cu	     10.45541      4.43278      6.39290         0.098897     -0.096823      0.034987
Cu	      8.46239     10.76070     10.70541         0.007656     -0.007432     -0.000437
Cu	      6.44783      6.38831      8.57311        -0.054064      0.124507      0.035735
O	      8.34714      6.49101      8.47340         0.054086      0.022152      0.066337
O	      6.23453      6.67177     10.83568         0.245140      0.004081     -0.208660
O	      8.26661      8.75860     10.64843        -0.090390     -0.067516      0.007901
O	      2.12476      2.05104      2.20642         0.035916     -0.031489      0.022772
O	      4.26345      4.27316      1.96628         0.051558     -0.039046      0.266483
O	      4.39884      2.05794      4.23440        -0.042362      0.131694     -0.006083
O	      6.41042      4.12229      4.23701        -0.223921      0.018918     -0.044326
O	      6.32632      2.27551      6.20066         0.015166      0.090683     -0.018324
O	      8.43629      4.34782      6.29565        -0.143219     -0.055772      0.046039
O	      2.13713      4.30700      4.28807        -0.044329     -0.007854     -0.038313
O	      4.17956      6.48369      4.41547        -0.008523      0.058362     -0.108076
O	      4.23724      4.52351      6.35163         0.005688     -0.067097     -0.036106
O	      6.16127      6.45995      6.26043         0.098126     -0.020576     -0.030724
O	      6.33532      4.38575      8.50209        -0.018282     -0.022858      0.126706
O	      2.24349      6.38982      6.43918         0.031253      0.009992      0.015404
O	      4.26714      8.42060      6.42342        -0.049323     -0.055797      0.002146
O	      4.26238      6.52387      8.41399         0.013867     -0.013766      0.041195
O	      6.30066      8.61621      8.66161         0.041506      0.017148      0.030654
