# total energy = -91.40569614 eV
 
CRYSTAL
PRIMVEC
2.213681 4.258242 2.137252 
4.326308 -2.082647 -2.129751 
0.027707 4.253340 -4.292403 
PRIMCOORD
16 1
Li	      2.24898      2.23957     -0.00187         0.086484      0.205325     -0.278776
Li	      4.49357      2.24489     -2.23662        -0.412442      0.111118     -0.018714
Li	      0.02683      2.23778     -2.24978         0.386875      0.356875     -0.267499
Li	      4.63102      4.44552     -4.46790         0.129206     -0.089248      0.087778
Mn	      0.24782      0.23959     -0.17113        -2.333280     -3.187750      2.083781
Mn	      2.26840      0.05920     -2.23481         0.481538      1.836285     -0.429100
Ni	      2.26181      4.44787     -2.18606         0.335552     -0.350507     -0.011207
Ni	      2.28093      2.20899     -4.42795         0.043980      0.281035      1.223090
O	      4.44272      4.45173     -2.07361        -0.835163     -0.664547      0.639262
O	      4.57860      2.26795     -4.60689         0.373314      0.647195      0.124100
O	      4.71064      2.33961      0.02037         0.088021      0.638241     -0.920589
O	      4.33556     -0.06694     -2.22460        -0.807113      2.228804     -0.038086
O	      2.44635      4.41862      0.07268         0.548919     -0.325832     -1.489915
O	      2.31146      2.12841     -2.22338         0.423125     -0.392915     -0.472945
O	      2.33078      6.74328     -2.26445         0.591709     -0.917762     -0.458288
O	      2.14234      4.45176     -4.52246         0.899275     -0.376317      0.227108
