# total energy = -237.39946097 eV
 
CRYSTAL
PRIMVEC
0.018437 6.493567 6.297242 
6.355953 0.026757 6.289126 
4.263872 4.350458 -0.008937 
PRIMCOORD
36 1
Li	      6.35721      6.51183     12.47350         0.030838     -0.026384     -0.010217
Li	      4.28277      2.12732      2.29393         0.016088     -0.042507     -0.172582
Li	      8.41158      4.51406      4.33436        -0.013505     -0.187663      0.042393
Li	      6.12546      2.25974      4.33665         0.067837      0.048896      0.007906
Li	      4.33753      4.17622      4.40330        -0.019051      0.119052     -0.073977
Li	      4.17301      2.30536      6.06448         0.017221      0.000975      0.253658
Li	      6.34733      4.37855      6.07283         0.022637     -0.047760      0.089949
Li	      2.23683      4.26045      6.15702        -0.053278      0.019412      0.008025
Li	      4.26915      6.43292      6.17393        -0.084272      0.022533      0.052322
Sc	      6.37720      4.33500      2.14968        -0.031430     -0.087902     -0.121431
Sc	      2.24130      4.29547      2.08227        -0.021846      0.047865     -0.025190
Sc	      4.25728      4.35175      8.25651        -0.086776     -0.004115      0.135025
Sc	      6.28896      6.60781      8.23598         0.026246      0.093097      0.122828
Mn	      8.50746      8.71386     12.49262         0.013014     -0.058743      0.045495
Mn	      4.29033      8.69096      4.24750         0.051566      0.310489      0.064882
Fe	      6.36323      2.14888      8.31942         0.051532      0.097205     -0.051119
Co	      6.41332      6.49204      4.27699         1.352152     -0.488708      0.699539
Cu	      2.14705      6.51590      4.30665         0.019021     -0.088108     -0.077493
O	      4.08207      2.17691      4.19213        -0.064383      0.107864      0.004546
O	      2.06198      2.16875      2.26846        -0.135496      0.023460     -1.099313
O	      4.27084      4.49124      2.14142         0.009237     -0.112274      0.046469
O	      6.37477      4.52676      4.15337        -0.338696     -0.819275     -0.115115
O	      6.50005      2.21910      6.38612        -0.093786     -0.002405     -0.091244
O	      8.51778      4.15953      6.37733        -0.008725      0.119820     -0.077212
O	      1.98070      4.11995      4.22542        -0.354918      0.820244     -0.142814
O	      4.27586      6.71313      4.10772        -0.329760      0.010937      0.053843
O	      4.25398      4.32090      6.32465         0.009056     -0.011916     -0.073122
O	      6.40073      6.51177      6.24182        -0.143687     -0.037824      0.776621
O	      6.41291      4.36633      8.49699        -0.029772     -0.028947      0.023792
O	      8.55246      6.49608      8.48949         0.004171      0.039621     -0.224434
O	      2.13022      6.70219      6.27199         0.044628      0.018713      0.103143
O	      4.14541      8.68069      6.11683         0.073053      0.001318     -0.109000
O	      4.26225      6.45589      8.34066        -0.014740      0.062146      0.046494
O	      6.41968      8.69011      8.45826        -0.008924     -0.020764     -0.034946
O	      6.52628      6.30195     10.42680        -0.077349     -0.056497      0.050393
O	      8.74333      8.78587     10.40388         0.102098      0.158145     -0.128115
