# total energy = -234.32502583 eV
 
CRYSTAL
PRIMVEC
-0.005801 6.362871 6.412630 
6.548658 0.000707 6.407096 
4.362537 4.234211 0.004154 
PRIMCOORD
36 1
Li	      4.49568     10.42131      6.51766         0.047650      0.028480      0.015951
Li	      2.20753      6.39379      8.38632         0.043729      0.050399      0.003631
Li	      4.29982      8.51039      8.41505        -0.029913      0.007552      0.003106
Li	      6.39667      6.37298      4.37011        -0.043458      0.022228      0.070366
Li	      4.20644      4.42189      4.37361        -0.018547     -0.023991      0.004273
Li	      4.48958      8.38171      4.45575         0.055146      0.047267     -0.018344
Li	      2.40432      6.19520      4.48479         0.036642      0.017995      0.019717
Li	      2.03018      4.30931      6.32483        -0.015888     -0.034244     -0.046758
Li	      4.30330      6.48319      6.18190        -0.012071     -0.018465      0.028627
Sc	      6.53255      2.13909      4.30366         0.014219     -0.042658     -0.090497
Sc	      4.44600      6.27460      2.23471         0.042160     -0.063106      0.086764
Sc	      8.64493      6.35010      6.36368        -0.047626      0.086011      0.082499
Sc	      4.36398      4.29948      8.47736        -0.050635     -0.031556     -0.013871
Mn	      8.69154      4.24413      4.25903         0.001525     -0.035411     -0.165927
Mn	      6.49392      6.36843      8.54469         0.016222     -0.005787     -0.040782
Fe	      2.30962      4.17615      2.39523        -0.026769      0.344963     -0.197731
Cu	      2.35902      8.39176      6.41376        -0.074749      0.175259     -0.097741
Ni	      6.52825      4.26264      6.37038        -0.032791      0.015193      0.006258
O	      2.16427      6.48249      6.40315         0.001936     -0.076664     -0.011436
O	      4.29249      8.46776      6.41635         0.049069      0.022873      0.021273
O	      2.14804      2.26236      1.96371        -0.092385     -0.413351      0.128457
O	      4.23586      4.25931      2.15976         0.141814      0.036696     -0.041386
O	      4.41371      1.95034      4.30361         0.008703     -0.035866      0.011133
O	      6.74870      4.23474      4.29581         0.079362      0.003965     -0.066421
O	      6.44275      2.17247      6.38035        -0.047719     -0.120167     -0.013102
O	      8.67176      4.21108      6.23005         0.061697      0.005988     -0.032771
O	      2.18110      4.21272      4.23799         0.003668     -0.001279      0.247581
O	      4.40441      6.35977      4.19239        -0.000551      0.008162     -0.018006
O	      4.42302      4.18236      6.44704        -0.029680     -0.008017      0.015924
O	      6.57315      6.32886      6.59337         0.075433      0.083935     -0.008093
O	      6.56648      4.33210      8.49169        -0.026302     -0.021722      0.030535
O	      8.79753      6.33217      8.50346         0.043989     -0.008154     -0.030826
O	      4.30321      6.32636      8.74130        -0.037526      0.005722      0.083873
O	      6.64745      8.33224      8.60177         0.023781      0.013134      0.010126
O	      6.31116      6.38836     10.51132        -0.115204     -0.008646      0.019641
O	      8.66070      8.64059     10.68178        -0.044928     -0.026738      0.003958
