# total energy = -234.68669628 eV
 
CRYSTAL
PRIMVEC
0.011810 6.549904 6.293727 
6.490373 0.031326 6.274306 
4.344736 4.371803 0.002877 
PRIMCOORD
36 1
Li	      6.27205      0.18770      6.19255         0.045385      0.007401     -0.033845
Li	      8.55930      2.37816      6.13984        -0.049321     -0.012533     -0.002710
Li	      4.42950      8.65867      8.35348         0.029124     -0.017662     -0.005887
Li	      8.80374     10.89966     10.60867        -0.001594     -0.054364      0.014798
Li	      6.44431      2.15072      4.34667         0.009627      0.010728     -0.014778
Li	      8.84676      6.36597      6.25222        -0.040309     -0.000087     -0.018964
Li	      6.64653      4.29813      6.26656         0.043418      0.014264      0.040168
Li	      4.29027      4.48626      8.40496        -0.034747      0.057832      0.009509
Li	      6.46475      6.55822      8.41973        -0.013391     -0.034830     -0.020209
Sc	      2.19725      6.55570      8.27974         0.110287     -0.085625      0.032624
Sc	      6.41066      2.29910      8.27506         0.035002      0.056103     -0.150590
Sc	      6.64098      6.46603      4.25384         0.132352     -0.068712      0.068141
Sc	      4.41757      4.26390      4.25110        -0.006125     -0.112444      0.049840
Mn	      6.50281      8.72844      6.29766         0.030596     -0.035086      0.085313
Mn	      4.36129      6.57971      6.27348         0.031399     -0.038782      0.234662
Fe	      8.63537      4.43156      8.26793         0.006167     -0.080033      0.111762
Cu	      6.41119      4.49180     10.47392         0.017721      0.043787      0.005917
Cu	      8.47422      6.78912     10.46604        -0.237573      0.303273     -0.026418
O	      6.52367      6.43878     10.53003         0.209522      0.211763     -0.035997
O	      8.80994      8.76304     10.41924        -0.161577     -0.185665      0.003265
O	      2.10191      2.21424      2.16190        -0.030145     -0.000321      0.035017
O	      4.32262      4.45108      2.14322        -0.032746      0.055248      0.038874
O	      4.31736      2.23406      4.26357        -0.066783      0.073533     -0.049749
O	      6.48367      4.40164      4.09975        -0.010889      0.004799     -0.059158
O	      6.46354      2.24562      6.32395        -0.048320      0.047635      0.137455
O	      8.64711      4.41033      6.40297         0.026343     -0.020143     -0.124340
O	      2.26925      4.24412      4.29725         0.047863     -0.087276     -0.081709
O	      4.44740      6.47758      4.29817         0.065791     -0.118540     -0.003439
O	      4.22050      4.60363      6.30668        -0.136385      0.039279     -0.064388
O	      6.28642      6.53854      6.31156        -0.011437     -0.092869     -0.056302
O	      6.62875      4.35834      8.51652        -0.045524     -0.020434     -0.103914
O	      8.68679      6.46193      8.51436        -0.029787      0.038482      0.009539
O	      2.35899      6.59846      6.17424         0.049718      0.109198      0.009174
O	      4.46091      8.53100      6.16900         0.122886     -0.050484      0.042542
O	      4.25438      6.63699      8.16087        -0.083821     -0.036166     -0.043694
O	      6.45153      8.86447      8.18118         0.027274      0.078731     -0.032506
