# total energy = -234.08241760 eV
 
CRYSTAL
PRIMVEC
-0.004846 6.415916 6.324693 
6.426897 0.018132 6.301272 
4.303646 4.280824 -0.006498 
PRIMCOORD
36 1
Li	      4.43790     10.64121      6.40705         0.034156     -0.008509      0.042453
Li	      2.16986      8.36945      6.35543         0.033185     -0.003209      0.013228
Li	      2.05980      6.47332      8.26330         0.018991      0.005413      0.016035
Li	      4.28755      2.21898      2.03530         0.020025      0.008557      0.022049
Li	      4.39046      6.30444      2.10694         0.006015     -0.048768     -0.009302
Li	      4.33844      4.37070      4.16336         0.063783     -0.023257     -0.009303
Li	      2.21193      6.38588      4.34440        -0.017222     -0.000753     -0.018263
Li	      2.11868      4.52048      6.31631        -0.032199     -0.035430      0.022587
Li	      4.13285      6.38472      6.29469        -0.104299      0.016815      0.033446
Sc	      6.51544      8.58457     10.50418        -0.118298     -0.039249     -0.016447
Sc	      2.27805      4.22107      2.07133         0.149080     -0.033808     -0.021489
Sc	      4.36350      2.26692      6.33059         0.033299      0.004651     -0.078659
Sc	      6.31724      6.44661      8.28916        -0.071734      0.095224     -0.030601
Mn	      6.37234      6.40200      4.20100         0.017294      0.022508     -0.043121
Mn	      4.27321      8.52093      4.30701         0.085939     -0.047535      0.123368
Fe	      4.29056      0.01883      4.20477         0.043730      0.135294     -0.016582
Ni	      6.43064      4.26146      6.31973        -0.006492      0.010933      0.045967
Ni	      4.26793      4.29290      8.37943        -0.037500      0.006739     -0.054846
O	      2.13640      6.44174      6.26965        -0.013638     -0.006713     -0.006923
O	      2.13621      2.15629      2.32734        -0.044800      0.006617      0.021275
O	      4.22929      4.28079      2.16543        -0.117062      0.004772     -0.019544
O	      4.35923      2.04965      4.23336        -0.020366      0.058225      0.021956
O	      6.53964      4.32354      4.23864        -0.048153      0.050173     -0.069273
O	      6.42066      2.20360      6.24801         0.008516     -0.081079     -0.022792
O	      8.51901      4.33720      6.27703         0.069629     -0.010215      0.015996
O	      1.92251      4.15244      4.21454        -0.065408     -0.058697      0.015791
O	      4.31339      6.62126      4.25575         0.033175      0.006580      0.020805
O	      4.36249      4.29103      6.31656        -0.042008     -0.004603     -0.079841
O	      6.49069      6.35926      6.19215         0.014149      0.095962     -0.028555
O	      6.39891      4.32057      8.50225         0.074499     -0.016941      0.095892
O	      8.47782      6.39320      8.37634        -0.008303     -0.062421      0.054135
O	      4.26800      8.59360      6.13066        -0.020672     -0.022371     -0.121460
O	      4.29339      6.38245      8.52089         0.058166      0.070175     -0.048417
O	      6.48524      8.48203      8.45840        -0.074326      0.012700      0.059305
O	      6.34081      6.36531     10.47298         0.051998     -0.042657     -0.021051
O	      8.67512      8.65040     10.48060         0.026849     -0.065123      0.092183
