# total energy = -241.59251802 eV
 
CRYSTAL
PRIMVEC
-0.038589 6.447338 6.283896 
6.455853 -0.033045 6.278988 
4.285370 4.275934 -0.003563 
PRIMCOORD
36 1
Li	      4.23359      2.15805      2.05279        -0.055243     -0.008257     -0.018873
Li	      6.39687      8.54417     10.47002         0.000330      0.050990      0.025211
Li	      0.12470      2.18908      2.18010         0.026657     -0.000119     -0.026377
Li	      2.00524      4.17770      2.26718        -0.014423     -0.037807     -0.019439
Li	      6.29602      6.53859      4.19505         0.018390     -0.063277      0.038190
Li	      4.44421      8.41581      4.21657         0.020920     -0.063095      0.017583
Li	      2.23813      6.23429      4.23010         0.050005     -0.030561     -0.013341
Li	      6.31490      8.52522      6.19199         0.000879      0.026600      0.001600
Li	      4.37566      6.55827      6.07314         0.044482      0.034889      0.009390
Sc	      2.10050      6.42559      8.33350        -0.004578     -0.024279      0.007797
Sc	      4.13267      4.38824      4.16502        -0.030499      0.051293     -0.052915
Sc	      4.32662      2.13300      6.29956        -0.031899     -0.062733     -0.004300
Sc	      8.63063      8.51270      8.45592         0.050721      0.082614      0.011696
Mn	      8.54034      8.54661     12.53941         0.067995     -0.001825     -0.063842
Mn	      4.29016      0.06161      4.19115         0.001244     -0.054447      0.069954
Fe	      4.29550     10.61129      6.27254        -0.119680      0.049327     -0.086876
Fe	      6.45217      6.46494      8.39327        -0.132136     -0.000470      0.036664
Co	      6.44594      4.29472      6.30174        -0.038775     -0.070293     -0.125464
O	      2.15302      2.05889      1.88849        -0.019289     -0.029096     -0.004114
O	      4.35730      4.22132      2.03664         0.070346      0.012012      0.128142
O	      4.28252      2.00823      4.22234         0.013178      0.055138     -0.014668
O	      6.57698      4.29497      4.20562         0.016280      0.007367     -0.022356
O	      6.49976      2.11188      6.29063         0.016424      0.017585      0.038837
O	      8.67806      4.31609      6.12338         0.121448      0.033253      0.072809
O	      2.18024      4.24549      4.19337         0.050975     -0.023873     -0.006656
O	      4.26887      6.35597      4.16229        -0.002127     -0.068334     -0.036787
O	      4.31678      4.19332      6.29759        -0.102043     -0.009719      0.020130
O	      6.45232      6.32184      6.41135         0.112904      0.129366     -0.070186
O	      6.41845      4.39491      8.31058        -0.075329     -0.089129      0.098461
O	      8.45894      6.47245      8.40414         0.053431      0.064059      0.023688
O	      1.96117      6.39223      6.25211         0.074407      0.077548      0.040902
O	      4.09695      8.66973      6.24821        -0.123887     -0.179177     -0.030835
O	      4.28884      6.41373      8.53804        -0.087872     -0.022730     -0.030058
O	      6.50109      8.53269      8.36870         0.090144      0.066545      0.000892
O	      6.18580      6.48573     10.46131        -0.031581      0.023676     -0.017745
O	      8.51888      8.80616     10.54805        -0.031801      0.056959      0.002885
