# total energy = -238.75058132 eV
 
CRYSTAL
PRIMVEC
-0.055142 6.577172 6.284905 
6.371210 0.000581 6.228973 
4.267188 4.367179 -0.019551 
PRIMCOORD
36 1
Li	      8.43433      4.22334      4.22722        -0.001071      0.032557      0.035580
Li	      6.46755      8.76809     10.40284        -0.054462     -0.007521      0.000428
Li	      6.22919      2.53052      8.29385         0.001890      0.083665      0.098541
Li	      8.32275      4.34362      8.40170        -0.054628      0.022268      0.001050
Li	      2.09234      2.20091      4.12693        -0.041415      0.024240      0.018491
Li	      6.41861      4.34622      6.24891        -0.002739      0.008839     -0.001410
Li	     10.47972      8.69245     10.30557         0.018194      0.006415     -0.049003
Li	      8.49158      6.74478     10.36316         0.057803     -0.031561     -0.024187
Li	      8.62260      8.57925      8.51956        -0.005286     -0.055014     -0.005579
Sc	      6.26249      6.64597     12.35615         0.007659     -0.042760     -0.127859
Sc	      2.21853      0.01024      2.16857         0.064343     -0.002327      0.112199
Sc	      4.22641      4.40806      4.12657        -0.019042      0.035373      0.077156
Sc	      2.08993      4.32373      6.17478         0.050370     -0.069237     -0.147373
Mn	      4.27347      2.20087      2.10320         0.052447     -0.023093      0.028856
Mn	      4.24166      6.57135      6.20022         0.030490     -0.065535     -0.076654
Fe	      8.55591      6.49635      6.30050        -0.088448      0.223793     -0.076382
Fe	      6.42686      6.34800      8.47713        -0.117768      0.140464     -0.182170
Cu	      8.43914      2.27898      6.13583        -0.111339      0.020970      0.129338
O	      8.44009      8.79376     10.53262        -0.018314      0.020933     -0.026103
O	      2.31549      2.12942      1.93175         0.047808      0.028850     -0.051698
O	      4.35475      4.15496      2.02442        -0.047912     -0.027965     -0.046442
O	      4.21231      2.23865      4.02005         0.009725     -0.000035     -0.030461
O	      6.31695      4.41907      4.10461         0.081348     -0.007476     -0.110821
O	      6.27537      2.12295      6.29327         0.114187     -0.011340      0.033470
O	      8.54926      4.55459      6.20317         0.002599      0.080132     -0.040456
O	      2.17432      4.31924      4.19627        -0.059920     -0.038787      0.002025
O	      4.24144      6.51490      4.31084         0.010525     -0.040421     -0.031948
O	      4.16258      4.21989      6.21711         0.006487     -0.114467     -0.023592
O	      6.24835      6.59255      6.33165         0.083079     -0.032880      0.060527
O	      6.30764      4.48063      8.34049        -0.050184     -0.254590      0.023763
O	      8.38769      6.59265      8.25180         0.062755      0.045045     -0.010130
O	      2.20752      6.45645      6.29520        -0.017539     -0.150794      0.023825
O	      4.25522      8.82029      6.38371        -0.036670      0.065435      0.083181
O	      4.26273      6.77166      8.22092         0.045778      0.081789      0.020804
O	      6.17679      8.78950      8.34092        -0.017328     -0.010566      0.027070
O	      6.35220      6.56585     10.37818        -0.003422      0.065598      0.285961
