# total energy = -239.82010883 eV
 
CRYSTAL
PRIMVEC
0.005819 6.390330 6.389090 
6.422504 0.002031 6.392462 
4.297728 4.278504 -0.014337 
PRIMCOORD
36 1
Li	     10.45346      4.53570      6.37046        -0.019787      0.110275      0.029846
Li	      8.45269      2.28323      6.40013        -0.016275      0.015484     -0.016597
Li	      8.71313      4.23923      4.44135         0.076875     -0.019919      0.013542
Li	      6.30637      2.17226      4.42231        -0.024721     -0.003827     -0.051853
Li	      6.44746      2.14970      8.31029         0.000244      0.015182      0.005373
Li	      8.53716      4.28897      8.37360         0.011697     -0.002092      0.009513
Li	      2.18342      2.14756      4.28597         0.035726     -0.023798     -0.036690
Li	      8.72395      6.26271      6.38182        -0.036709      0.051855     -0.004758
Li	      6.50328      6.34419      8.45970         0.015914     -0.013573      0.014635
Sc	      2.07579      0.10169      2.13539        -0.012511      0.002017      0.023072
Sc	      4.25766      2.19248      2.12636        -0.002841     -0.003245     -0.019151
Sc	      8.49159      6.39908     10.66558        -0.049207      0.065249      0.005292
Sc	      8.59317      8.45626      8.51709        -0.032662     -0.001083      0.047698
Mn	      4.27145      4.23199      4.25567        -0.057066      0.016845     -0.072361
Mn	      4.33977      6.36917      6.38310        -0.003391     -0.003568      0.010401
Fe	      6.60941      4.18893      6.30885        -0.172178      0.117586      0.064106
Fe	      6.44335      4.32951     10.59431         0.048186     -0.190554      0.102838
Ni	      6.45848      8.44727      6.38332         0.069294     -0.049355      0.016532
O	      2.23631      2.09452      2.09675        -0.018484     -0.004869     -0.030488
O	      4.33988      4.24881      2.04115        -0.056694      0.014936     -0.036382
O	      4.27717      2.32369      4.19923        -0.036258      0.006689     -0.038095
O	      6.30102      4.28638      4.25900        -0.086927      0.022363     -0.057681
O	      6.41150      2.28960      6.36614        -0.016612     -0.114176      0.003349
O	      8.47589      4.32149      6.35488         0.154182      0.073462     -0.002254
O	      2.15970      4.26656      4.32634         0.106528     -0.043815     -0.067896
O	      4.25991      6.27304      4.43583         0.042803     -0.009321      0.085341
O	      4.30402      4.40612      6.42500         0.077857      0.076130      0.036454
O	      6.24053      6.32473      6.40127        -0.058094     -0.090382     -0.007250
O	      6.39456      4.24479      8.61447         0.067172      0.013737     -0.109489
O	      8.55056      6.46485      8.61160         0.000590     -0.021384     -0.008700
O	      2.35404      6.32272      6.39780         0.136223      0.036756      0.004757
O	      4.38821      8.29330      6.28922        -0.062460     -0.092623      0.019987
O	      4.26043      6.41404      8.35974         0.010614     -0.021235     -0.056912
O	      6.44869      8.59035      8.45373         0.001856     -0.012924      0.079416
O	      6.46412      6.25566     10.75866         0.006169      0.103807      0.048390
O	      8.73972      8.48933     10.60670        -0.099056     -0.020629     -0.003987
