# total energy = -244.01677557 eV
 
CRYSTAL
PRIMVEC
0.003602 6.479373 6.390325 
6.226323 0.006147 6.387269 
4.171248 4.338078 -0.016140 
PRIMCOORD
36 1
Li	     10.37316      4.38408      6.43498         0.007095     -0.000313      0.098769
Li	      4.16242      2.22767      2.11194         0.000518     -0.039903      0.036739
Li	      6.31707      8.60437     10.61426        -0.051630     -0.018496      0.019203
Li	      6.20964      2.33431      8.54388         0.035890      0.039182     -0.045305
Li	      8.28680      4.38089      8.54021         0.052562      0.050118     -0.014708
Li	      6.17810      4.22187      6.50447         0.016060     -0.020803     -0.020743
Li	      6.22147      4.28378     10.50782         0.028700      0.061519     -0.022412
Li	      4.13319      6.55914      6.33910         0.024837      0.080792     -0.023472
Li	      4.23209      4.28553      8.50172        -0.040259      0.046990     -0.086094
Sc	      2.10109      2.20249      0.13747        -0.072512      0.057411      0.015194
Sc	      8.36092     10.74776     10.65927         0.048780     -0.036615      0.010392
Sc	      6.14614      8.74483      6.35205         0.003910     -0.085084      0.029367
Sc	      6.19112      6.35773      8.41472        -0.014257      0.035004      0.006631
Mn	      6.15905      6.48723      4.22868         0.005024      0.050354     -0.020448
Mn	      4.19235      4.29942      4.22311        -0.016177     -0.033538     -0.005406
Fe	      6.22806     10.71227      8.52490         0.078441      0.082801     -0.052461
Fe	      4.31844      2.13389      6.43101        -0.177134     -0.040409      0.056593
Fe	      8.34168      6.61899     10.51980         0.027022     -0.073005      0.045875
O	      2.06587      2.04370      2.25776         0.020787      0.013507     -0.017777
O	      4.26226      4.25595      2.31275        -0.189603      0.003852     -0.032697
O	      3.96462      2.04816      4.37013         0.019448      0.031568     -0.075780
O	      6.20027      4.24226      4.17820         0.029112      0.041609      0.091977
O	      6.20639      2.13902      6.40845         0.149678      0.022702      0.018281
O	      8.34456      4.35302      6.34574        -0.039331     -0.019258      0.070373
O	      2.20508      4.54343      4.24724        -0.070420     -0.113657     -0.030250
O	      4.20022      6.56034      4.25456         0.064066     -0.062499     -0.016410
O	      4.14400      4.17229      6.18150         0.048003      0.048563      0.046592
O	      6.24343      6.57882      6.26024        -0.009126     -0.003669     -0.016216
O	      6.23688      4.41538      8.47058        -0.007089     -0.034338      0.023064
O	      8.30242      6.55279      8.49092         0.047294     -0.017005     -0.077826
O	      2.07919      6.52603      6.41910         0.036745     -0.026059     -0.032471
O	      4.13967      8.68929      6.42165         0.018658     -0.030153     -0.004002
O	      4.10288      6.43881      8.59909         0.037629      0.031702     -0.098195
O	      6.27879      8.70436      8.39782        -0.040801     -0.056115      0.036651
O	      6.29307      6.55229     10.51399        -0.051451     -0.058795      0.097067
O	      8.33702      8.60392     10.75353        -0.020468      0.072040     -0.010093
