# total energy = -239.41476206 eV
 
CRYSTAL
PRIMVEC
0.030422 6.369611 6.399468 
6.263078 0.007337 6.423127 
4.180196 4.266261 -0.000208 
PRIMCOORD
36 1
Li	      4.04218      4.14422      0.09963         0.174842      0.004454      0.021365
Li	      8.41339      2.30616      6.50141         0.023135     -0.253647      0.049384
Li	      2.09495      6.37956      8.43521        -0.006588      0.003433     -0.102299
Li	      8.27268      4.40659      4.41364         0.054210      0.053289     -0.218654
Li	      8.39179      4.20592      8.37227         0.041833     -0.009285      0.197310
Li	      2.22280      2.08544      4.22440        -0.029354      0.064658     -0.064327
Li	      4.20279      4.14874      4.27662        -0.095793     -0.029185     -0.094423
Li	      8.30661      6.27092      6.45238         0.017646      0.112064      0.027481
Li	      2.08618      4.31512      6.44171        -0.069696      0.020325      0.032556
Sc	      6.23285      2.32790      4.34932        -0.014000     -0.230448     -0.307836
Sc	      0.13286      2.01617      2.03270         0.144924     -0.335755      0.191799
Sc	      2.07380      6.27657      4.32771         0.049867      0.006700      0.005979
Sc	      4.20175      6.36590      6.43137        -0.036906      0.276088      0.137668
Mn	      4.14240      2.22831      2.14298         0.115314     -0.075361     -0.031960
Mn	     10.43354      8.53533     10.70061        -0.084324     -0.048790     -0.041688
Mn	      6.34636      6.36134      8.50354        -0.156292      0.228931      0.043227
Co	      6.33523      4.25043      6.43640         0.489469      0.069123     -0.323645
Cu	      4.20171      4.22112      8.48829        -0.350551      0.175445      0.262477
O	      8.24383      4.26561      6.37232        -0.547957     -0.010008      0.057027
O	      2.18852      2.07841      2.13986        -0.450991      0.062117     -0.066516
O	      4.16608      4.20411      2.13188        -0.034581      0.345131     -0.053606
O	      4.20381      2.18291      4.07310         0.089674      0.045152      0.290273
O	      6.23463      4.29277      4.49126        -0.052036      0.074810     -0.253508
O	      6.29158      2.23389      6.40879        -0.141068     -0.721744      0.040544
O	      1.87899      4.24975      4.35333         0.101245     -0.006580      0.019572
O	      4.16321      6.51485      4.25305         0.059937      0.008153      0.016677
O	      4.30449      4.28373      6.55345         0.313388     -0.093004     -0.479600
O	      6.31910      6.22858      6.57963         0.015310      0.653966      0.068126
O	      6.30133      4.16821      8.43981         0.176564     -0.049105      0.381641
O	      8.32611      6.33323      8.59345         0.068115     -0.315390     -0.103956
O	      2.18017      6.36522      6.32901         0.011817     -0.031238     -0.021172
O	      4.20349      8.50366      6.54440        -0.059243      0.060850     -0.177563
O	      4.34757      6.59500      8.50419         0.019653     -0.114086      0.014735
O	      6.17699      8.58057      8.60065         0.234831      0.044048     -0.019276
O	      6.27284      6.29554     10.51263        -0.091384     -0.021828      0.176666
O	      8.43901      8.48364     10.49314         0.018988      0.036716      0.325519
