# total energy = -90.96750179 eV
 
CRYSTAL
PRIMVEC
2.224324 4.278714 2.147528 
4.347108 -2.092660 -2.139990 
0.027840 4.273789 -4.313039 
PRIMCOORD
16 1
Li	      2.27066      2.26116     -0.00189         0.103126      0.223836     -0.295764
Li	      4.53689      2.26653     -2.25818        -0.440264      0.125753     -0.026847
Li	      0.02709      2.25935     -2.27147         0.422355      0.389487     -0.295221
Li	      4.67566      4.48837     -4.51096         0.142291     -0.091431      0.105040
Mn	      0.28194      0.27296     -0.19348        -2.559178     -3.685409      2.308935
Mn	      2.29027      0.05977     -2.25635         0.497650      1.984677     -0.476516
Ni	      2.28361      4.49074     -2.20713         0.337975     -0.377723     -0.016403
Ni	      2.30292      2.23028     -4.47063         0.025486      0.279687      1.344752
O	      4.48555      4.49464     -2.09360        -0.909123     -0.711820      0.684304
O	      4.62273      2.28981     -4.65129         0.458639      0.719539      0.161853
O	      4.75604      2.36216      0.02057         0.044162      0.684040     -1.011630
O	      4.37735     -0.06759     -2.24605        -0.849024      2.635679     -0.028778
O	      2.46992      4.46122      0.07338         0.562756     -0.348483     -1.675436
O	      2.33374      2.14893     -2.24480         0.460764     -0.380050     -0.510061
O	      2.35325      6.80828     -2.28628         0.650662     -1.043342     -0.517559
O	      2.16298      4.49467     -4.56605         1.051724     -0.404440      0.249331
