# total energy = -240.95279122 eV
 
CRYSTAL
PRIMVEC
0.011799 6.421408 6.405046 
6.318530 0.027767 6.388762 
4.229640 4.287109 0.001262 
PRIMCOORD
36 1
Li	      8.36788      2.25954      6.28998         0.028849     -0.031179     -0.037550
Li	      6.34844      4.29246      2.32175        -0.007678      0.009675      0.021549
Li	      8.19085      4.24499      4.38874        -0.077128     -0.080283     -0.037077
Li	      6.34730      2.30422      4.39619        -0.036613     -0.040285      0.032924
Li	      2.16930      4.23869      2.07811         0.004575      0.001532      0.001518
Li	      6.39354      6.34575      4.40925        -0.020289      0.028137      0.002166
Li	      4.20389      2.06443      6.19514        -0.001893     -0.017756      0.001721
Li	      6.44709      4.27328      6.24707        -0.063679      0.021326      0.075970
Li	      4.19591      8.56394      4.34105        -0.027066     -0.022849     -0.009306
Sc	     10.42934      4.32871      6.28843         0.004437     -0.028002      0.014259
Sc	      4.11165      2.14444      2.19206        -0.020760      0.007369     -0.035767
Sc	      0.12143      2.18099      2.05810         0.033525      0.023244     -0.033636
Sc	      6.37033      6.37316      8.46154         0.018912     -0.017975     -0.024815
Mn	      4.28005      4.28388      4.31949        -0.004563      0.065436      0.023750
Mn	      2.14497      6.42279      4.28617         0.045431      0.007078      0.053410
Mn	      8.40846      8.62270      8.56055         0.048839     -0.006515     -0.037529
Co	      4.24641      6.48170      6.38328        -0.013389     -0.003212     -0.049324
Ni	      2.13214      4.28131      6.34645        -0.006305      0.008760      0.017661
O	      2.12235      2.18329      2.17632         0.025467     -0.008554     -0.003618
O	      4.25160      4.28859      2.19344         0.010608     -0.000712      0.033041
O	      4.21841      2.39022      4.24292         0.012213      0.032129      0.001867
O	      6.14723      4.31696      4.28907        -0.012063      0.010481      0.014814
O	      6.32034      2.07547      6.46396        -0.005773      0.024771     -0.033560
O	      8.46975      4.30539      6.30780        -0.012243     -0.006774      0.014528
O	      2.26479      4.45854      4.26847         0.061403      0.007451     -0.104163
O	      4.12149      6.30554      4.23150         0.016676      0.013091      0.053070
O	      4.18992      4.36954      6.27982         0.143310     -0.023580     -0.072000
O	      6.30600      6.50317      6.43843        -0.000350     -0.112759      0.055746
O	      6.12545      4.29707      8.53124         0.001779      0.017289     -0.012998
O	      8.45851      6.48579      8.67768         0.005472      0.050013      0.015575
O	      2.15418      6.39697      6.19940         0.003481      0.091597     -0.101759
O	      4.28647      8.58286      6.47917        -0.085999      0.010094      0.030278
O	      4.25510      6.43149      8.64472        -0.024485     -0.024162     -0.041307
O	      6.46864      8.54476      8.47922        -0.040483      0.006428      0.097482
O	      6.54277      6.37835     10.63506         0.014544     -0.022530      0.000776
O	      8.45798      8.37076     10.60770        -0.018761      0.011224      0.072304
