# total energy = -242.06168722 eV
 
CRYSTAL
PRIMVEC
-0.008212 6.593725 6.302674 
6.320352 0.013191 6.280805 
4.214390 4.381862 0.008687 
PRIMCOORD
36 1
Li	      4.22300      4.30858      0.15095        -0.003235      0.003433     -0.072161
Li	      4.27165      2.26879      2.10522         0.014422      0.063861      0.030341
Li	      4.23215      6.60245     10.47620         0.027050      0.008829      0.028176
Li	      8.50980      4.58538      8.38056        -0.019844      0.136063      0.012118
Li	      4.15953      4.47034      4.21594        -0.029198      0.014351      0.036897
Li	      8.39805      6.59225      6.34260        -0.019309      0.062949      0.002417
Li	      2.15784      6.48086      4.11479        -0.055897      0.028868     -0.045255
Li	      2.08005      4.56751      6.23261        -0.014456      0.074841     -0.040657
Li	      4.14333      6.50580      6.30354         0.008413     -0.051160     -0.043912
Sc	      2.22446      8.79350      6.34757        -0.008466     -0.003511     -0.056726
Sc	      6.17758      2.12668      4.24422         0.081091     -0.073542      0.034369
Sc	      2.14765      2.29733      4.20926         0.069414      0.027100      0.015402
Sc	      6.34276      4.40085      6.30873         0.023912     -0.066293      0.007975
Mn	      2.11779      6.60754      8.39046         0.103895     -0.101986     -0.038628
Mn	      0.00797      4.39066      4.19932        -0.067002      0.069950     -0.006826
Mn	      6.23974      6.63698      8.32236        -0.046072      0.011679      0.102716
Fe	      4.14897      4.37348      8.29055        -0.039863     -0.031253      0.212692
Cu	      4.13331      6.45466      2.10927        -0.005509      0.040334     -0.121955
O	      4.43710      4.45743      2.13333         0.017672      0.008032      0.024645
O	      2.30319      1.93455      2.12714         0.107756     -0.038414      0.061505
O	      4.20906      2.21515      4.23170        -0.095905      0.016834     -0.007693
O	      6.35943      4.36650      4.17276         0.005760      0.038649     -0.035121
O	      6.35447      2.24113      6.32347        -0.002423      0.002800     -0.016599
O	      8.39225      4.26731      6.42316        -0.019382     -0.004543      0.024847
O	      1.95920      4.34801      4.12483         0.075109     -0.073014     -0.024529
O	      4.23869      6.57109      4.03942        -0.006055     -0.078801      0.128925
O	      4.24539      4.39706      6.37365         0.032007     -0.016674     -0.170809
O	      6.27969      6.50062      6.34632        -0.014611     -0.055955     -0.117350
O	      6.19790      4.36442      8.45134         0.007142     -0.064383     -0.031336
O	      8.18614      6.73625      8.36143        -0.006275     -0.069024     -0.012118
O	      2.11841      6.65101      6.51215         0.021258      0.004660      0.050743
O	      4.24004      8.83002      6.12233         0.029252     -0.008133      0.074825
O	      4.18874      6.43954      8.39316        -0.090543      0.005354     -0.007562
O	      6.32675      8.97698      8.43619        -0.041749      0.080485     -0.017760
O	      6.26395      6.68419     10.26099        -0.020580      0.051303      0.064742
O	      8.49921      8.75390     10.50680        -0.017777     -0.013691     -0.046339
