# total energy = -241.37000747 eV
 
CRYSTAL
PRIMVEC
0.053312 6.427984 6.302422 
6.416552 0.027739 6.328071 
4.288803 4.314031 0.006970 
PRIMCOORD
36 1
Li	      6.39877      0.17712      6.18107        -0.024878     -0.013219      0.013330
Li	      8.38735      2.15129      6.23326         0.012984     -0.020908     -0.011435
Li	      6.46887      4.27293      2.24705         0.004157      0.007527     -0.034932
Li	      8.42844      4.36154      4.33048        -0.028116     -0.009829     -0.018077
Li	      6.45870      2.18797      4.38921        -0.024314      0.004641     -0.021758
Li	      6.48062      6.23797      4.26961        -0.007546     -0.014935     -0.011383
Li	      6.57993      4.13210      6.06461         0.037840     -0.012953      0.019076
Li	      8.48426      6.54089     10.67886         0.018630      0.002219     -0.019294
Li	      6.37421      6.56495      8.53080        -0.001488     -0.023881     -0.010329
Sc	      0.15291      2.05162      2.08124         0.011755      0.014785      0.048341
Sc	      8.56290      4.36481      8.40807        -0.044998      0.011643      0.003490
Sc	      6.39879      4.52230     10.62443        -0.000368     -0.002563     -0.010001
Sc	      8.52372      8.65193      8.53521         0.023124      0.016349      0.006845
Mn	      4.30029      2.11892      6.22080         0.003124     -0.048819     -0.037319
Mn	      2.16382      4.30973      6.27343         0.001007      0.002352      0.036372
Mn	      4.35016      6.43625      6.24596        -0.005010      0.011369      0.048544
Fe	      4.28383      2.12866      2.21112         0.007578     -0.010848     -0.113805
Ni	      4.41693      4.28306      4.21146        -0.070773      0.016993      0.046742
O	      6.39139      4.28597      4.19296         0.179379     -0.014095      0.028461
O	      2.24697      2.24289      2.02329        -0.076743     -0.028871     -0.004131
O	      4.23905      4.26066      2.15824         0.014209      0.015171     -0.111611
O	      4.28537      2.17305      4.17058        -0.058847     -0.093132      0.161895
O	      6.45177      2.15514      6.41349         0.050879     -0.002314     -0.054317
O	      8.52848      4.53893      6.36825        -0.009474     -0.032034     -0.036195
O	      2.15186      4.34437      4.29090        -0.032766      0.029586      0.074850
O	      4.33806      6.44138      4.28161        -0.007803      0.058581     -0.047535
O	      4.13788      4.12996      6.30078        -0.050414     -0.034172      0.056503
O	      6.33124      6.67829      6.27227        -0.012133      0.009951      0.017378
O	      6.42823      4.21365      8.52743         0.016335      0.039245     -0.069429
O	      8.65157      6.49312      8.28819        -0.005125      0.007756      0.034930
O	      2.39905      6.22419      6.30497        -0.042291      0.023692     -0.032735
O	      4.51030      8.67063      6.39628         0.042594      0.051451     -0.004031
O	      4.33925      6.46798      8.23515         0.034208     -0.034403      0.062683
O	      6.42419      8.59668      8.23629         0.034927      0.005595     -0.026434
O	      6.47300      6.44364     10.51482         0.031991      0.066685     -0.014346
O	      8.64259      8.61550     10.50757        -0.021633      0.001387      0.029657
