# total energy = -245.92525076 eV
 
CRYSTAL
PRIMVEC
0.021392 6.425054 6.436242 
6.369422 0.034635 6.422689 
4.290484 4.318459 -0.020887 
PRIMCOORD
36 1
Li	      2.19601      6.40678      8.57788         0.006986     -0.074710      0.044928
Li	      4.33339      8.46657      8.68297        -0.017522      0.020560      0.022188
Li	      4.25065      6.42937     10.52513        -0.022424     -0.032994      0.028531
Li	      4.34869      6.37303      2.28849         0.018539      0.003186     -0.031587
Li	      4.30858      4.38268      4.25137        -0.006561     -0.018377     -0.023556
Li	      2.20119      6.46564      4.28897        -0.002823     -0.017373     -0.002473
Li	      2.18567      4.44386      6.37600         0.040220      0.036848     -0.102570
Li	      4.24070      6.35304      6.52529         0.017070     -0.012779      0.005162
Li	      4.23140      4.43024      8.58732         0.013022     -0.032111     -0.013649
Sc	      4.41662     10.67900      6.45833        -0.041196      0.040630      0.054986
Sc	      2.25535      8.49703      6.46839         0.021045      0.030987      0.043058
Sc	      2.21302      4.34532      2.25388         0.046144      0.032338     -0.048790
Sc	      4.18563      2.24889      6.40110         0.000819      0.012781     -0.022433
Mn	      6.42031      8.60378     10.62446        -0.003188     -0.017267      0.046341
Mn	      2.12346      2.10385      4.21598        -0.016753     -0.001745     -0.018160
Mn	      6.30649      6.51529      8.57990         0.008257      0.039085     -0.043423
Fe	      6.29702      4.34897      6.37588         0.147248     -0.112036      0.031295
Fe	      4.27101      8.50440      4.26200         0.040300      0.091038     -0.056263
O	      2.13571      2.20290      2.15945        -0.003794      0.006226      0.085493
O	      4.22012      4.40809      2.04830        -0.008217      0.002723      0.044507
O	      4.08158      2.14451      4.32019        -0.062566     -0.014283     -0.050256
O	      6.39664      4.18490      4.34606         0.001414     -0.092686     -0.085328
O	      6.38280      2.20347      6.24470         0.000872     -0.017869      0.091073
O	      8.49055      4.31555      6.50825        -0.020357     -0.022814     -0.015017
O	      2.00600      4.31048      4.27763         0.049689      0.148503      0.030973
O	      4.44293      6.55361      4.21559         0.033388     -0.177822     -0.018903
O	      4.36892      4.25885      6.42270        -0.184293     -0.011044     -0.024543
O	      6.42165      6.33796      6.26671        -0.013054      0.062062     -0.118088
O	      6.39694      4.45549      8.52745        -0.041679     -0.020458      0.023867
O	      8.34114      6.44869      8.46920         0.002677      0.047460      0.034107
O	      2.13218      6.48157      6.48603         0.047438     -0.021720      0.007882
O	      4.28863      8.65640      6.29848         0.032193      0.025947      0.074038
O	      4.44035      6.47540      8.54347        -0.065881     -0.030825     -0.005844
O	      6.39445      8.51306      8.72691         0.010341      0.008293     -0.033955
O	      6.38362      6.55897     10.76841         0.014062      0.103781      0.051100
O	      8.67415      8.59260     10.78391        -0.041413      0.016467     -0.004690
