# total energy = -238.09689176 eV
 
CRYSTAL
PRIMVEC
0.066879 6.551548 6.257213 
6.395314 0.074427 6.249572 
4.312540 4.412078 0.001183 
PRIMCOORD
36 1
Li	      4.37741      8.63530      8.37388        -0.006414     -0.016905      0.009922
Li	      4.43152      6.54271     10.27315         0.029676     -0.064004      0.028383
Li	      8.47895      4.59836      8.42973         0.015374     -0.011620     -0.032645
Li	      2.18367      2.34385      4.19628         0.021717      0.013275     -0.029089
Li	      6.52814      4.58996     10.34814         0.017298     -0.000706     -0.008598
Li	      6.49190      8.63682      6.25035        -0.021516      0.009144      0.029356
Li	      4.41245      6.67359      6.29849         0.024014      0.004082      0.004821
Li	      8.54735      8.90687      8.41739        -0.000740      0.032123     -0.040924
Li	      6.54281      6.56019      8.35427         0.044640     -0.020230     -0.003074
Sc	      4.35982     10.84696      6.23449        -0.027910     -0.016181      0.035873
Sc	      2.31907      8.70670      6.22899        -0.012170      0.026207     -0.018092
Sc	     10.64055      6.76641      8.43510         0.041679     -0.008804      0.003869
Sc	      6.45433      4.64679      6.27813        -0.019212      0.019581     -0.042491
Mn	      2.27393      6.58226      8.38007        -0.048794     -0.041012     -0.011041
Mn	      6.47388      8.75550     10.34848        -0.012754      0.045424      0.002051
Mn	      4.26760      4.41839      4.17358         0.024615      0.001868     -0.019492
Ni	      8.53183      6.70822      6.26078         0.049742     -0.069047      0.009644
Ni	      8.55475      6.55534     10.37112         0.002259      0.027975      0.055131
O	      2.09145      1.99942      2.06869        -0.029637     -0.037333     -0.014032
O	      4.43254      4.48035      2.15814         0.005006      0.041376      0.052290
O	      4.43953      2.44623      4.18015        -0.029894      0.060404     -0.068961
O	      6.31994      4.48282      4.09168        -0.084859      0.024379     -0.001373
O	      6.41931      2.23849      6.19283         0.060914     -0.009539      0.034767
O	      8.57957      4.38883      6.22217        -0.001376     -0.049571     -0.015866
O	      2.38551      4.40123      4.14457         0.029938     -0.049366      0.012149
O	      4.22916      6.37684      4.20332         0.095591     -0.039399     -0.004209
O	      4.37092      4.36137      6.07225         0.012813      0.091914     -0.040918
O	      6.50630      6.60692      6.27104        -0.123279     -0.035972      0.001848
O	      6.45212      4.37389      8.31184         0.000006     -0.009384     -0.010978
O	      8.62338      6.61907      8.29468         0.042805     -0.016424      0.051150
O	      2.15307      6.60130      6.40809         0.004214      0.003487      0.054256
O	      4.31651      8.83991      6.20333        -0.002634     -0.008256      0.014509
O	      4.11243      6.60452      8.37259        -0.045453     -0.011097     -0.001298
O	      6.48976      9.05198      8.44396         0.004795      0.047361     -0.060350
O	      6.48165      6.60447     10.43755        -0.060722     -0.017514      0.013276
O	      8.42433      8.66821     10.43595         0.000265      0.083767      0.010135
