# total energy = -90.48676232 eV
 
CRYSTAL
PRIMVEC
2.234967 4.299187 2.157803 
4.367907 -2.102672 -2.150230 
0.027973 4.294238 -4.333676 
PRIMCOORD
16 1
Li	      2.29244      2.28285     -0.00191         0.119319      0.241086     -0.310472
Li	      4.58040      2.28827     -2.27984        -0.462953      0.141627     -0.034658
Li	      0.02735      2.28102     -2.29326         0.454423      0.421330     -0.319419
Li	      4.72051      4.53142     -4.55423         0.152139     -0.088935      0.119029
Mn	      0.31637      0.30663     -0.21603        -2.760382     -4.200725      2.523027
Mn	      2.31224      0.06034     -2.27800         0.508956      2.115543     -0.526017
Ni	      2.30551      4.53382     -2.22830         0.328387     -0.404451     -0.023786
Ni	      2.32501      2.25167     -4.51352         0.005011      0.274232      1.460829
O	      4.52857      4.53775     -2.11368        -0.969596     -0.759744      0.724416
O	      4.66707      2.31178     -4.69590         0.543239      0.787276      0.197612
O	      4.80166      2.38482      0.02077        -0.005196      0.719291     -1.098444
O	      4.41934     -0.06823     -2.26759        -0.885811      3.080084     -0.010000
O	      2.49362      4.50401      0.07408         0.558881     -0.364398     -1.859197
O	      2.35613      2.16954     -2.26634         0.494612     -0.360017     -0.538697
O	      2.37582      6.87359     -2.30821         0.705138     -1.171909     -0.574023
O	      2.18373      4.53779     -4.60985         1.213834     -0.430290      0.269800
