# total energy = -243.85047723 eV
 
CRYSTAL
PRIMVEC
-0.002062 6.367513 6.422571 
6.507580 0.010198 6.410097 
4.338558 4.236334 0.007536 
PRIMCOORD
36 1
Li	      6.51869      6.46766     12.68828        -0.019595     -0.000788     -0.021468
Li	      6.62372      4.15979      2.35230         0.026605      0.023997     -0.033266
Li	      6.51564      8.53094     10.59168         0.016844     -0.033252      0.025981
Li	      6.65107      6.18895      4.44425         0.046526      0.084395      0.002806
Li	      4.27696      2.21513      6.25965        -0.027050      0.041532      0.048985
Li	      6.39891      4.35983      6.35361         0.011905     -0.023349      0.066213
Li	      4.50447      6.26069      6.52031         0.004941      0.016294      0.008765
Li	      8.59022      8.58381      8.59571        -0.021723     -0.033611     -0.002900
Li	      6.47245      6.42201      8.48562         0.023745      0.041508      0.017051
Sc	      4.37674      8.38469      8.64328         0.008287     -0.012692     -0.005334
Sc	      8.63045      4.28093      8.41009        -0.046040     -0.004699     -0.029400
Sc	     10.76336      8.55778     10.69756        -0.055962      0.019034     -0.031002
Sc	      6.57812      8.39686      6.47318         0.006316      0.031295     -0.004372
Mn	      2.12714      8.41119      6.42709         0.001333     -0.016538      0.005011
Mn	      4.35995      6.32847      2.13978         0.011691      0.023682     -0.142132
Mn	      4.48344      4.24640      4.33305         0.047695      0.023731      0.039275
Mn	      8.60135      6.40133     10.63542        -0.085141      0.083800      0.036018
Cu	      8.46854      4.26284      4.33137         0.204125     -0.011046      0.039812
O	      6.48550      4.23342      4.32456        -0.212810      0.024107      0.006382
O	      2.25866      2.19046      2.16645         0.037211     -0.025555      0.125240
O	      4.27705      4.31415      2.32175         0.026149     -0.026601      0.019765
O	      4.38602      2.32064      4.28192         0.022625      0.001357      0.013775
O	      6.67948      2.04087      6.64371         0.001810      0.014253      0.016760
O	      8.69278      4.05248      6.33923         0.024226      0.069671      0.007741
O	      2.06314      4.41351      4.26119         0.041964     -0.114417      0.007806
O	      4.15526      6.32241      4.14321        -0.036733     -0.013349      0.003786
O	      4.30279      4.28188      6.24199         0.018195      0.020254     -0.009538
O	      6.51246      6.43531      6.40942        -0.005569      0.003680      0.001987
O	      6.57310      4.09084      8.61113         0.000319     -0.036552     -0.010419
O	      8.64447      6.33396      8.69297        -0.022467     -0.022375     -0.025514
O	      2.16094      6.45846      6.17869        -0.013963     -0.091999     -0.035052
O	      4.27454      8.46072      6.41658        -0.016382     -0.037163      0.013298
O	      4.33232      6.38217      8.77147        -0.011479      0.012275     -0.036641
O	      6.42139      8.55330      8.46364         0.001731      0.025856      0.040841
O	      6.68892      6.36135     10.67057         0.037842     -0.037733     -0.046511
O	      8.69526      8.31614     10.65449        -0.047173     -0.019002     -0.113747
