# total energy = -248.33232678 eV
 
CRYSTAL
PRIMVEC
-0.003402 6.477777 6.422050 
6.286374 0.002287 6.416486 
4.186151 4.309821 0.006474 
PRIMCOORD
36 1
Li	     10.43106      4.36655      6.44364        -0.009056      0.028959      0.021381
Li	      4.21182      2.18598      2.19405         0.007130     -0.037611      0.005952
Li	      6.22693      8.63738     10.61588        -0.013949      0.030822     -0.049382
Li	      4.21599      6.45800      2.18878        -0.016625      0.010804      0.040739
Li	      2.08234      2.12207      4.21671         0.039216     -0.047960      0.031643
Li	      4.16730      4.38019      4.21503        -0.023777      0.105483      0.056743
Li	      6.28139      4.30770     10.57287        -0.004358     -0.040493     -0.061400
Li	      4.16601      4.42345      8.60796        -0.061128      0.087371     -0.010883
Li	      6.26433      6.40838      8.60470         0.010836     -0.070421     -0.052299
Sc	      2.08184      8.60206      6.43623        -0.000222     -0.041576     -0.042891
Sc	      6.26601      4.33875      6.46645        -0.111267     -0.042856      0.030916
Sc	      8.31284      6.54982     10.54306        -0.015126      0.000498     -0.100561
Sc	      6.22711      8.62670      6.43114        -0.075191     -0.042770     -0.034437
Mn	      6.18025      4.30039      2.23060         0.031057      0.041075     -0.012892
Mn	      4.27504      6.48566     10.62354         0.025448     -0.002624     -0.000422
Mn	      4.26443      2.11751      6.44307         0.080004      0.028381      0.040954
Mn	      4.17386      6.47348      6.40253        -0.017121      0.050060     -0.043418
Fe	      2.13692      4.21605      2.26213         0.133418      0.013070      0.000349
O	      2.08018      2.09484      2.13003        -0.002487     -0.072807     -0.006351
O	      4.19298      4.28217      2.21703         0.067507     -0.027789      0.020494
O	      4.23750      1.96165      4.50727         0.003951      0.032567     -0.005716
O	      6.50456      4.32776      4.35345        -0.082633     -0.000806      0.044774
O	      6.23495      2.22681      6.43845         0.024697      0.051230      0.027222
O	      8.41332      4.20815      6.56085         0.038354     -0.102403     -0.013308
O	      2.10110      4.39669      4.23800        -0.018968      0.044968      0.129400
O	      4.12559      6.47525      4.46778        -0.009517     -0.015108      0.006735
O	      4.18797      4.44296      6.41465         0.130803      0.030146      0.009682
O	      6.43888      6.50875      6.46986        -0.033904      0.023815      0.026901
O	      6.44830      4.30287      8.50987        -0.145694     -0.005071     -0.042518
O	      8.42436      6.37749      8.47002         0.008659      0.032081      0.121105
O	      1.97250      6.48003      6.29818        -0.067898      0.008916     -0.054738
O	      4.16787      8.45441      6.41920         0.054713     -0.037366     -0.006309
O	      4.02746      6.48302      8.41059         0.003338     -0.002731     -0.015031
O	      6.23598      8.84335      8.47700        -0.023274      0.018680     -0.020050
O	      6.20496      6.49758     10.60737         0.099093     -0.000968     -0.047971
O	      8.38721      8.69906     10.71899        -0.026031     -0.047567      0.005588
