# total energy = -260.46028101 eV
 
CRYSTAL
PRIMVEC
0.013541 6.460033 6.511383 
6.480407 0.011929 6.513799 
4.326168 4.313848 0.002006 
PRIMCOORD
36 1
Li	      0.09301      6.42994      6.44933        -0.027453     -0.024774     -0.021402
Li	      2.28897      8.41297      6.55992         0.018476      0.002470      0.039185
Li	      2.44078      6.46063      8.53824        -0.058934      0.011365      0.009731
Li	      4.33263      8.38166      8.55776        -0.025748      0.112986     -0.000754
Li	      4.41838      6.40498     10.58648         0.022713      0.006799      0.008360
Li	      2.12333      6.52734      4.51594        -0.004874      0.014321      0.075100
Li	      4.16247      6.60637      6.78418         0.014028     -0.001603     -0.045541
Li	      4.24187      4.57628      8.75743         0.000595     -0.035516      0.010767
Li	      6.25616      6.53308      8.71766         0.017746      0.016491      0.002247
Sc	      6.59549      8.49194     10.73821        -0.006497      0.012908      0.012619
Sc	      2.24423      2.11100      4.25255        -0.001778     -0.032246     -0.022139
Sc	      6.48916      4.35926      6.61766         0.012073      0.007939      0.047525
Sc	     10.64531      8.76319     10.91548         0.006103     -0.067252     -0.050763
Sc	      6.43868      8.76570      6.69791         0.021180     -0.100382      0.043939
Ti	      4.32149      4.38431      4.29787         0.061609      0.114451     -0.206544
Mn	      6.51608      2.10580      8.58867         0.029135     -0.011778     -0.036711
V	      8.65240      4.35500      8.67386        -0.011026     -0.020391     -0.013453
Cr	      8.65289      6.45647      6.51954        -0.004464     -0.008883      0.005657
O	      2.16392      2.28160      2.21739         0.065996     -0.026143      0.006657
O	      4.21165      4.27587      2.40573         0.036713     -0.058135      0.240682
O	      4.33315      2.30188      4.43640        -0.005745      0.053546      0.054076
O	      6.30208      4.32792      4.41744        -0.124453      0.017993     -0.001463
O	      6.36667      2.24751      6.42918         0.003187     -0.035882     -0.066276
O	      8.55726      4.44865      6.58795         0.009184     -0.038876      0.001033
O	      2.25273      4.25661      4.35007         0.033535      0.026656     -0.000614
O	      4.41380      6.33045      4.33447        -0.011456     -0.098086      0.024551
O	      4.31199      4.21321      6.37948        -0.001500     -0.003396     -0.068274
O	      6.62002      6.45176      6.40834         0.038011      0.010087     -0.014240
O	      6.60017      4.30427      8.71160        -0.024751      0.032493     -0.008834
O	      8.72389      6.31167      8.51003        -0.018748      0.075553     -0.017739
O	      2.15624      6.40406      6.54837        -0.019016      0.017950     -0.019476
O	      4.41013      8.60985      6.39934        -0.043104     -0.001936      0.013682
O	      4.33288      6.47684      8.69347        -0.012553      0.027821     -0.016275
O	      6.50947      8.61488      8.71557         0.007601      0.012970      0.000028
O	      6.48686      6.46534     10.85094         0.007301     -0.011707      0.023771
O	      8.64721      8.60564     10.85611        -0.003083      0.002188     -0.009113
