# total energy = -261.48316012 eV
 
CRYSTAL
PRIMVEC
-0.026856 6.343325 6.509555 
6.418519 0.033806 6.448352 
4.322399 4.231654 -0.021030 
PRIMCOORD
36 1
Li	      6.40800      6.36882     12.92853         0.019513      0.015673     -0.001373
Li	      4.27100      6.38970     10.77735        -0.032610      0.011003     -0.045348
Li	     10.61344      6.51892      8.62341         0.033940     -0.046187      0.026877
Li	      8.47599      4.30825      8.61737        -0.032639     -0.000757      0.038525
Li	      6.42021      6.36118      4.35426        -0.005278     -0.023413      0.041479
Li	      6.43128      4.25672      6.60229         0.022951      0.022740      0.069998
Li	      8.53464      6.38832     10.62713         0.003070     -0.015810     -0.062414
Li	      4.42423      4.11879      8.61517         0.041093      0.045340     -0.023100
Li	      6.51247      6.31091      8.65856         0.039014      0.035057      0.003254
Sc	      6.45838      4.24951      2.14906        -0.064345     -0.041076      0.064004
Sc	      4.22244      4.29725      4.24894         0.044707     -0.037413     -0.024146
Sc	      8.58698      6.31073      6.60847         0.000357     -0.044139     -0.172592
Sc	      6.43389      4.34327     10.63161         0.055277      0.027123      0.062801
Sc	      4.39035      6.30565      6.51960         0.070010     -0.046152     -0.007832
Ti	      8.46303      2.30789      6.43095        -0.132672      0.237810      0.012084
V	      6.46452      8.38120     10.78394        -0.109898      0.089755     -0.101338
Cr	      4.26030      2.12761      2.13879         0.023964      0.055795      0.061742
Cr	      2.12417      4.26950      6.48537         0.042166     -0.022076      0.043470
O	      2.22327      2.11571      2.00495        -0.025156     -0.005769     -0.119691
O	      4.33948      4.14714      2.18748        -0.034027     -0.046737     -0.048536
O	      4.40570      2.13210      4.21068        -0.016600      0.002773     -0.033152
O	      6.38191      4.11674      4.20611         0.025639      0.022208     -0.022099
O	      6.52529      2.09523      6.39972         0.157370      0.011692      0.029062
O	      8.54316      4.17534      6.43780        -0.048497     -0.325631      0.001781
O	      2.12695      4.24002      4.39171        -0.030778      0.023425     -0.032696
O	      4.32675      6.36171      4.40940        -0.027214      0.056055     -0.021447
O	      4.41367      4.22126      6.39210        -0.021845      0.020703      0.038804
O	      6.48150      6.42783      6.44689        -0.019029     -0.062731      0.017789
O	      6.39262      4.26347      8.71036         0.039172      0.013544      0.028655
O	      8.61756      6.37393      8.51910        -0.009528      0.006428      0.092308
O	      2.19193      6.37290      6.56958        -0.017804      0.089031     -0.033263
O	      4.06807      8.44746      6.56162        -0.009437      0.009859      0.012601
O	      4.20338      6.44416      8.59982        -0.008192      0.007390      0.018450
O	      6.27390      8.47890      8.61138        -0.024939     -0.018037     -0.000748
O	      6.42036      6.41950     10.80494         0.006666     -0.059195      0.008458
O	      8.51665      8.49608     10.95485         0.045577     -0.008282      0.077635
