# total energy = -257.83434238 eV
 
CRYSTAL
PRIMVEC
0.042087 6.439220 6.392141 
6.486655 0.021940 6.412272 
4.324362 4.306146 0.014762 
PRIMCOORD
36 1
Li	      6.40901      4.40117      2.27279        -0.046781      0.040675      0.009670
Li	      8.59476      4.36985      4.28596        -0.015839      0.032800     -0.006322
Li	      4.39288      6.35888      2.40887         0.023432     -0.029444     -0.072609
Li	      2.27781      4.23567      2.31374         0.002333     -0.030078      0.025494
Li	      6.30927      6.53476      4.19350         0.023323     -0.042441      0.005864
Li	      4.26604      4.47452      4.14423         0.022745     -0.067021     -0.011512
Li	      4.30116      2.21239      6.30178        -0.040951      0.026975     -0.081395
Li	      4.52055      8.35857      4.25160         0.027401      0.006392     -0.023619
Li	      2.39002      6.32294      4.22091         0.009133     -0.020315      0.024382
Sc	     10.72680      4.38591      6.43710        -0.017971      0.084650      0.018536
Sc	      2.23844      8.52650      6.38865        -0.064782     -0.001973      0.029685
Sc	      4.23588      2.19598      2.27317        -0.087635      0.025496      0.062287
Sc	      6.50049      4.37605      6.28998         0.067543      0.045726     -0.020402
Sc	      6.55534      6.41392      8.66513         0.057661     -0.106475     -0.051675
Ti	      8.72659      8.54783      8.61881         0.223667     -0.263452      0.141711
V	      6.44870      2.22896      4.24588        -0.037163      0.043316      0.060314
V	      2.21884      4.30449      6.25258        -0.015851     -0.007982     -0.064278
Co	      4.33022      6.43577      6.28634         0.028890     -0.054294     -0.034092
O	      2.23614      2.11169      2.05393         0.023836      0.025985     -0.018373
O	      4.29747      4.24402      2.07171         0.008302     -0.023360     -0.004649
O	      4.48168      2.14145      4.26069        -0.039156      0.025821     -0.029843
O	      6.49797      4.21469      4.29934        -0.007813      0.030624      0.017784
O	      6.56520      2.19629      6.33843         0.009289      0.003408      0.029317
O	      8.62076      4.23569      6.40409        -0.005893     -0.026833     -0.023473
O	      2.18999      4.28624      4.36646         0.000683     -0.010104     -0.004556
O	      4.35670      6.44609      4.33642        -0.025261     -0.022495      0.083722
O	      4.34209      4.28742      6.57043         0.040971      0.168596      0.046139
O	      6.50214      6.50672      6.48149         0.111279     -0.017545      0.012012
O	      6.33658      4.35385      8.51189        -0.196481      0.021437      0.029840
O	      8.62225      6.66070      8.57563        -0.001197      0.268245      0.023472
O	      2.16233      6.38556      6.39379        -0.121056      0.040731     -0.023534
O	      4.35974      8.67581      6.40983        -0.026949     -0.172049      0.007250
O	      4.43250      6.39096      8.50118         0.002107     -0.013583     -0.003978
O	      6.57476      8.56934      8.49306         0.053123     -0.005959     -0.037637
O	      6.51571      6.61734     10.68419         0.000338     -0.003815      0.008442
O	      8.57248      8.64656     10.56966         0.014725      0.028338     -0.123973
