# total energy = -262.00414583 eV
 
CRYSTAL
PRIMVEC
-0.003393 6.414016 6.510374 
6.398635 0.019890 6.486867 
4.285659 4.280200 -0.006752 
PRIMCOORD
36 1
Li	      0.07178      6.40427      6.57476         0.019029      0.014763      0.008217
Li	     10.57277      6.45977      8.76390        -0.015875      0.003782      0.041857
Li	      2.20751      4.31513      2.28846         0.008651      0.012918      0.014158
Li	      2.11567      2.20356      4.32730        -0.017180     -0.042286     -0.018891
Li	      4.10175      4.36206      4.24944         0.034451     -0.016736     -0.003447
Li	      6.38579      4.28773      6.58994        -0.013669     -0.018484      0.033251
Li	      2.23627      6.27520      4.25528        -0.033545      0.054893     -0.013669
Li	      2.19391      4.27060      6.36189         0.005514     -0.023683      0.004842
Li	      4.39658      4.14734      8.55976        -0.015165     -0.008354     -0.036681
Sc	      6.43418      8.58944     10.81599         0.005670      0.031961     -0.018094
Sc	      4.24216      2.20178      6.50016         0.018415     -0.071960     -0.057631
Sc	      0.14163      4.23759      4.31361        -0.063490      0.028355      0.011248
Sc	      4.27111      6.26449      6.40103         0.015111     -0.014150      0.035595
Sc	      6.45600      6.37289      8.64551        -0.023147      0.027274      0.027288
Ti	      8.48020      2.27708      6.54179        -0.033648      0.132484     -0.037932
V	      6.33191      4.31722      2.16271         0.090852     -0.027832      0.063423
V	      8.54232      4.26970      4.33502         0.032115      0.024124     -0.076700
Cr	      4.23729      2.21903      2.14275         0.059931     -0.061379      0.043718
O	      2.21267      2.14345      2.02676        -0.008659      0.054730     -0.069738
O	      4.38659      4.18742      2.13612        -0.084257      0.012318      0.021708
O	      4.30369      2.10937      4.25710        -0.001963      0.098999     -0.023709
O	      6.45316      4.23944      4.16794        -0.073240      0.043888      0.004729
O	      6.48176      2.18005      6.42943         0.090582      0.003489      0.015094
O	      8.54754      4.22297      6.47220        -0.020191     -0.173867      0.070369
O	      2.09295      4.29110      4.36266         0.046989     -0.016960     -0.020899
O	      4.27070      6.45872      4.40610        -0.018652     -0.016134     -0.011651
O	      4.26585      4.24970      6.50702         0.000608     -0.007670      0.004965
O	      6.41644      6.39843      6.55592        -0.015302     -0.005902      0.003293
O	      6.33747      4.36111      8.77210         0.026650     -0.057206     -0.039101
O	      8.49201      6.44698      8.52871         0.045902     -0.044635      0.005825
O	      2.18170      6.57330      6.65444        -0.022330      0.040364     -0.025819
O	      4.13807      8.54072      6.56611        -0.049027      0.006530      0.029308
O	      4.21598      6.54120      8.64955        -0.002666      0.057867     -0.081424
O	      6.28238      8.57340      8.70917        -0.047795      0.004520     -0.010772
O	      6.40045      6.44525     10.77801         0.063521     -0.010314     -0.015047
O	      8.53425      8.56221     11.03306        -0.004193     -0.035706      0.122318
