# total energy = -260.19441248 eV
 
CRYSTAL
PRIMVEC
0.015997 6.320422 6.420669 
6.524830 0.015616 6.422111 
4.364936 4.229579 -0.004184 
PRIMCOORD
36 1
Li	      6.51901      6.37761     12.77533        -0.026088      0.000282     -0.047298
Li	      6.54888     10.47258      8.62820         0.009505     -0.009554     -0.005849
Li	      6.60475      8.51295     10.63660         0.034166      0.004427     -0.017732
Li	      2.21905      4.26671      2.23788         0.005853      0.008608      0.027891
Li	      4.31492      4.27869      4.23165        -0.045806     -0.037181      0.008195
Li	      6.54951      4.24083      6.34355         0.019913     -0.026421     -0.098432
Li	      2.20912      6.22070      4.26617        -0.031730      0.004558      0.032444
Li	      2.17664      4.25540      6.38738        -0.015103     -0.011429      0.018439
Li	      8.67360      8.40684      8.63641         0.008863     -0.013508      0.034147
Sc	      8.58459      2.17491      6.46649         0.036705     -0.016046     -0.052408
Sc	      4.45253      2.30998      2.10103         0.009929     -0.013427      0.012708
Sc	      6.49437      6.33306      4.25363         0.095642     -0.022534     -0.015421
Sc	      4.47211      2.11879      6.42840        -0.029212      0.013616     -0.037743
Sc	      6.61515      6.32825      8.56898        -0.052816     -0.004115      0.041379
Ti	      4.23287      6.15459      6.45746        -0.232437     -0.189198      0.109080
V	      8.71609     10.52499     10.65787         0.039221      0.037049     -0.041852
V	      4.39516      8.45027      4.30640        -0.063613      0.062634      0.034759
Fe	     10.85528      6.32095      8.55487         0.014158      0.029661      0.021661
O	      2.26313      2.16747      2.13638        -0.021037      0.018949      0.009089
O	      4.40466      4.29102      2.16064        -0.017991     -0.054182      0.020753
O	      4.28707      2.07528      4.25987        -0.003977      0.009023      0.039639
O	      6.73386      4.27093      4.23127        -0.068686      0.038717      0.027681
O	      6.52549      2.13633      6.38407        -0.004834      0.015654      0.006044
O	      8.72505      4.25899      6.32805         0.024934      0.010245      0.004186
O	      2.01529      4.19181      4.32990         0.083542     -0.021622     -0.023407
O	      4.39885      6.31997      4.45370        -0.015414      0.021462      0.046601
O	      4.35848      4.29228      6.39140        -0.013850      0.232231     -0.004028
O	      6.51958      6.30127      6.41377        -0.040036      0.021193     -0.003445
O	      6.50253      4.16708      8.73773         0.008909      0.063482     -0.037352
O	      8.66163      6.34303      8.47638         0.000392     -0.009472      0.012820
O	      2.37983      6.34528      6.42475         0.244462     -0.017768      0.017367
O	      4.29094      8.35440      6.40416         0.009974     -0.074441      0.028362
O	      4.43616      6.34712      8.43665        -0.013604      0.006523     -0.117081
O	      6.47664      8.39198      8.57532         0.017126     -0.003247     -0.051572
O	      6.42374      6.31385     10.66029         0.059187     -0.010660     -0.012449
O	      8.83055      8.52966     10.76649        -0.026247     -0.063509      0.012824
