# total energy = -256.17629780 eV
 
CRYSTAL
PRIMVEC
0.038326 6.426703 6.382081 
6.463778 0.028506 6.391470 
4.334305 4.315587 -0.005467 
PRIMCOORD
36 1
Li	      8.52057      2.19216      6.39713        -0.088642     -0.011492     -0.000107
Li	      6.52464      2.19519      4.29377        -0.009962      0.006512     -0.004452
Li	     10.74481      6.55629      8.54860        -0.056939     -0.007289     -0.037596
Li	      6.39452      6.42349      4.35119         0.013584      0.009448      0.002290
Li	      4.31736      4.54484      4.35278         0.001727     -0.015837     -0.064588
Li	      6.36487      4.28845      6.39799        -0.022399     -0.059212      0.010705
Li	      2.33499      6.39480      4.22252         0.006967     -0.001243      0.012615
Li	      4.42832      6.31401      6.22228         0.053146      0.041686      0.056146
Li	      6.54981      6.43765      8.48865         0.034429     -0.017002     -0.003133
Sc	      6.56185      6.57565     12.68966         0.048284     -0.035362      0.023916
Sc	      2.14128      0.07880      2.16805        -0.093931      0.048914     -0.074950
Sc	      4.42741      8.55307      8.55426        -0.000520      0.052777     -0.023036
Sc	      8.56859      4.36244      8.56388         0.039497     -0.025452     -0.006981
Sc	      4.31632      8.43204      4.26240         0.041762      0.021800      0.044792
Ti	      8.56403      4.27830      4.33064        -0.048163     -0.054627      0.053994
V	      4.30699      2.20870      6.35427         0.055114     -0.000131      0.005072
V	      2.25724      4.26473      6.34146        -0.068539      0.074405     -0.053729
Ni	      4.36820      4.25910      8.50238        -0.020767     -0.001765      0.003489
O	      2.29200      2.16759      2.04904        -0.005955     -0.010118      0.038030
O	      4.33893      4.24332      2.08522         0.013605      0.006987      0.022152
O	      4.34728      1.99607      4.27538        -0.011500     -0.096161     -0.006170
O	      6.64763      4.32434      4.23365         0.129355      0.005362      0.024600
O	      6.35437      2.14711      6.35612         0.026816      0.035237      0.005949
O	      8.67467      4.35810      6.33374        -0.044460     -0.021759     -0.130007
O	      2.11382      4.32765      4.21285         0.046306      0.012731      0.019423
O	      4.32593      6.47187      4.25671         0.053815      0.021711     -0.026692
O	      4.27005      4.30021      6.42444         0.064272     -0.005133     -0.112648
O	      6.64215      6.60226      6.34779        -0.058889     -0.060255      0.039106
O	      6.51571      4.31194      8.55837         0.036233      0.007521     -0.031908
O	      8.65156      6.46660      8.38451        -0.006139     -0.089684      0.031163
O	      2.14156      6.37086      6.42645         0.035028      0.011417      0.018825
O	      4.51801      8.63104      6.40251        -0.023687      0.000217      0.007345
O	      4.29718      6.45290      8.66707         0.019522      0.044434      0.060413
O	      6.53345      8.67592      8.47034        -0.044360     -0.016982      0.025813
O	      6.28525      6.37584     10.69140        -0.067241      0.016909     -0.039736
O	      8.67232      8.73501     10.62011        -0.047371      0.111437      0.109893
