# total energy = -89.53981812 eV
 
CRYSTAL
PRIMVEC
0.000197 1.970671 1.969001 
5.911569 5.970447 -3.995642 
-3.948355 1.998317 -1.996971 
PRIMCOORD
16 1
Li	     -1.88896      3.80202     -1.91750        -0.495570      0.131099     -0.342064
Li	      1.91124      5.63675     -3.75135         0.267209      0.516419     -0.893985
Li	     -0.00568      3.78670     -0.02610         0.008028     -0.251701      0.448758
Li	      3.72993      5.76021     -1.98831         0.761087      0.034381      0.298759
Mn	     -3.76552      1.90886     -1.90443        -4.784761     -1.713420      0.449943
Mn	     -0.00968      5.69401     -1.92843        -2.669569      1.936651      0.321172
Ni	      3.75369      7.59391     -3.82363         2.030028      1.118675      0.003478
Ni	      1.88704      3.80202     -1.91787         1.884749     -1.639211     -0.359501
O	      3.88125      5.71256     -3.82273         1.299150     -0.749362     -0.455982
O	      0.00475      5.59170     -3.70787        -0.204964      1.201240     -2.490771
O	      1.86609      7.71295     -3.94071        -0.101921      1.846343     -1.338128
O	     -2.00922      3.76142      0.00292         0.836604     -0.124611      0.480755
O	     -0.00501      3.89837     -2.01342        -1.869269     -2.333500      1.043928
O	      1.75990      5.68350     -1.91825         2.371109      1.593065     -0.169450
O	     -0.00028      1.79607      0.08777         0.245944     -0.663505      0.882220
O	      2.00503      3.81494     -0.04882         0.422146     -0.902564      2.120867
