# total energy = -260.50057713 eV
 
CRYSTAL
PRIMVEC
-0.002027 6.500254 6.332166 
6.414554 0.021829 6.307950 
4.289663 4.330902 0.001219 
PRIMCOORD
36 1
Li	      6.48976      6.55413     12.50123        -0.001566      0.057815      0.042140
Li	      2.16094      8.50516      6.20041         0.058626     -0.074676     -0.029824
Li	      6.45819      2.18434      4.32380        -0.007316      0.023423      0.027439
Li	      6.42141      6.56074      4.31314         0.003952      0.011302     -0.033799
Li	      4.23852      4.33639      4.29465        -0.017079      0.011988     -0.044327
Li	      6.37901      4.34117      6.18120        -0.011149      0.017500     -0.009393
Li	      0.08829      4.38203      4.35518         0.008969      0.005577      0.028782
Li	      2.06771      6.41818      4.41214        -0.006517     -0.056057     -0.071227
Li	      2.11073      4.38405      6.08248         0.006830     -0.008558      0.062411
Sc	      6.34445      4.33737      2.11798         0.029697     -0.039149     -0.011326
Sc	      8.54653      4.31488      4.37586        -0.011010      0.024487      0.088648
Sc	      2.16714      4.28299      2.22674        -0.009485      0.013689     -0.068667
Sc	      8.59421      8.62725      8.50580        -0.037856      0.011397      0.007399
Sc	      6.43180      6.51500      8.47785         0.036889     -0.001664     -0.026608
Ti	      4.31868      6.51637      2.18197        -0.014434      0.000078      0.151370
V	      4.28926      8.68305      8.41941         0.005378     -0.003652     -0.019573
V	      4.27252      2.26976      6.22665        -0.065966      0.024892      0.011656
V	      4.28152      6.50643      6.18751         0.042183     -0.039316     -0.019197
O	      2.15920      2.16512      2.05257        -0.038335     -0.028945     -0.025054
O	      4.28897      4.32850      2.06466         0.017209      0.050432     -0.041028
O	      4.27847      2.14087      4.12045        -0.009627      0.004891      0.013358
O	      6.50369      4.33495      4.12488        -0.015417     -0.000632      0.029806
O	      6.26480      2.21599      6.49183         0.028733      0.007547      0.018015
O	      8.53876      4.56908      6.35702        -0.012449      0.037119     -0.063697
O	      2.13394      4.35197      4.14756         0.007737      0.000561      0.022530
O	      4.28896      6.49692      4.08277         0.033903     -0.018508     -0.195825
O	      4.29156      4.34813      6.33776        -0.014138     -0.010992      0.030640
O	      6.41792      6.51344      6.33471         0.024948      0.013108      0.040973
O	      6.41013      4.33528      8.42734        -0.001130     -0.035906      0.013138
O	      8.56055      6.53473      8.37740         0.020825      0.014812     -0.003886
O	      2.30609      6.49063      6.35087        -0.044444     -0.025162      0.007634
O	      4.29704      8.49962      6.45475        -0.015750      0.007948     -0.038694
O	      4.29213      6.49399      8.39906        -0.006026     -0.010032      0.028552
O	      6.36898      8.65947      8.43033         0.012252      0.002918      0.032680
O	      6.35620      6.51964     10.48744        -0.000376      0.001026      0.023821
O	      8.53708      8.75790     10.50334         0.001940      0.010738      0.021132
