# total energy = -254.86588247 eV
 
CRYSTAL
PRIMVEC
0.059454 6.378232 6.379952 
6.597300 0.025083 6.412721 
4.393507 4.269325 0.021438 
PRIMCOORD
36 1
Li	      8.64972      2.17060      6.53408        -0.032410     -0.043645     -0.006072
Li	      6.50623      4.32065      2.22236        -0.020664     -0.007314     -0.071633
Li	      6.64841      8.52967     10.63761        -0.020125     -0.038426     -0.006179
Li	      0.17949      2.22274      2.10730        -0.016992     -0.019418      0.003811
Li	      2.13239      4.15487      2.26251         0.003337      0.102665      0.024211
Li	      2.11637      2.16423      4.16759        -0.010289      0.042262      0.052560
Li	      4.45751      4.38587      4.16885         0.031394      0.028041      0.012794
Li	      6.70352      4.19066      6.47956        -0.043518      0.000433      0.006592
Li	      6.71408      4.24096     10.51761         0.023404     -0.000507      0.042219
Sc	      4.56718      2.11539      6.37940        -0.053222     -0.058931      0.071966
Sc	      8.89650      6.43002     10.62031         0.002642      0.009201      0.045608
Sc	      2.23753      4.30167      6.36970        -0.015388      0.062581     -0.008454
Sc	      4.48083      6.39402      6.32487        -0.032955      0.000083     -0.022098
Sc	      6.62533      6.31650      8.62092         0.056499     -0.019763     -0.000299
Ti	      4.23694      2.29875      2.24653        -0.266274      0.237653     -0.050022
Ti	      8.52938      4.17182      4.33189        -0.342139     -0.155420      0.233740
Co	      4.48062      4.26257      8.52960         0.052406     -0.005420      0.021423
Cu	      4.39782      4.26778      0.02864        -0.008064      0.003903      0.007100
O	      2.40091      2.17454      2.16833         0.326097      0.015139     -0.023471
O	      4.44420      4.14231      2.13306        -0.029098     -0.276129      0.040714
O	      4.41670      2.01648      4.20725        -0.008454     -0.071619     -0.090335
O	      6.73568      4.24782      4.26409         0.303118     -0.000506      0.010325
O	      6.55607      1.99935      6.45290         0.032351      0.094540     -0.026888
O	      8.70517      4.30998      6.21536        -0.160111      0.005735     -0.220057
O	      2.20960      4.35958      4.32209         0.062125      0.015708     -0.009493
O	      4.38793      6.42578      4.32094         0.017954     -0.007979     -0.011175
O	      4.38111      4.26148      6.42891         0.043171     -0.053639     -0.021250
O	      6.61119      6.46482      6.46120         0.025714     -0.010798      0.012352
O	      6.52971      4.28851      8.49890         0.009327      0.035955      0.024537
O	      8.72698      6.37063      8.51550         0.003957     -0.000628     -0.012447
O	      2.41577      6.39153      6.33579         0.178190     -0.007668     -0.012311
O	      4.51711      8.54664      6.58659         0.017916     -0.098361      0.034555
O	      4.49336      6.49621      8.59888        -0.000221      0.067358      0.004080
O	      6.59945      8.49025      8.51373        -0.027857     -0.020437     -0.025867
O	      6.68676      6.38715     10.68710        -0.039889      0.014950     -0.045001
O	      8.81803      8.63524     10.60201        -0.061933      0.160402      0.014464
