# total energy = -257.08099104 eV
 
CRYSTAL
PRIMVEC
0.022466 6.478500 6.437861 
6.355488 0.034221 6.425972 
4.259481 4.333407 0.000502 
PRIMCOORD
36 1
Li	      6.54421      6.66663     12.83035        -0.057800      0.028837     -0.001634
Li	      8.27802      2.09804      6.48019         0.054162      0.012148      0.041723
Li	      2.10749      6.48972      8.51400        -0.017355     -0.050103      0.011060
Li	      6.45201      8.63300     10.80869        -0.005505      0.014625      0.008387
Li	      6.40351      2.26738      8.43859         0.051041      0.071058     -0.008418
Li	      2.15916      2.15667      4.27231        -0.031317      0.055861     -0.030692
Li	      6.42102      4.23111      6.48589         0.047681     -0.049366      0.041732
Li	      2.13102      6.49907      4.35242         0.029480     -0.068501      0.020011
Li	      8.53517      8.59989      8.63854         0.012722     -0.061403      0.042123
Sc	      4.29896      4.40226      4.23175        -0.144900      0.056880     -0.110975
Sc	      4.38669      2.19234      6.43943         0.061729     -0.181710      0.026142
Sc	      0.06220      4.28446      4.28947         0.163787     -0.033007     -0.019992
Sc	      4.17358      6.42288      6.48336        -0.012492     -0.000853     -0.090089
Sc	      6.43889      6.55307      8.60775         0.178737     -0.129698     -0.003018
Ti	      4.17162      2.24176      2.07910        -0.289382      0.404034     -0.049878
Ti	      8.35772      4.24079      4.37226        -0.236266     -0.209841      0.272743
Co	      8.46906      4.34049      8.50690         0.376357     -0.002130      0.286396
Co	      2.11519      4.38073      6.43771        -0.025769     -0.003633     -0.078692
O	      2.27730      2.23594      2.13944        -0.021272      0.599389     -0.050457
O	      4.24258      4.18442      2.16530        -0.683572     -0.172641     -0.165436
O	      4.25207      2.17871      4.20889        -0.016990     -0.028951     -0.065325
O	      6.46130      4.36714      4.23758         0.164887      0.006520     -0.076787
O	      6.34175      2.18247      6.45068        -0.120906      0.004627     -0.067644
O	      8.45628      4.43063      6.24093        -0.049123     -0.011793     -0.419615
O	      2.16351      4.34585      4.30605        -0.013366      0.017253      0.252976
O	      4.28295      6.48745      4.38235        -0.021992      0.024052      0.028188
O	      4.31078      4.33337      6.34559        -0.024159     -0.022528      0.077754
O	      6.37156      6.58253      6.52035         0.007201      0.006279      0.031359
O	      6.40866      4.40307      8.65226         0.541940     -0.084840     -0.113514
O	      8.48832      6.48393      8.52572        -0.025610     -0.450044      0.071062
O	      2.16412      6.42217      6.44172         0.083796     -0.023835      0.086777
O	      4.21996      8.56263      6.53395         0.054202     -0.012215      0.070343
O	      4.25755      6.63857      8.64193        -0.014006      0.050392     -0.054838
O	      6.23312      8.62335      8.55076        -0.055363      0.026101      0.053311
O	      6.22238      6.42420     10.68847        -0.005912      0.030086      0.006875
O	      8.52090      8.84425     10.68206         0.045334      0.188950     -0.021962
