# total energy = -260.52904327 eV
 
CRYSTAL
PRIMVEC
-0.019548 6.354801 6.459994 
6.462452 0.015310 6.424682 
4.327475 4.231939 -0.008691 
PRIMCOORD
36 1
Li	      8.58293      2.17520      6.46811        -0.060634      0.025509      0.038279
Li	      4.30367      8.49557      8.53242        -0.001750      0.020699     -0.027987
Li	      6.36793      2.30461      8.54442        -0.031721      0.029941     -0.012142
Li	      8.49185      4.27852      8.57430        -0.056163     -0.008639      0.053041
Li	      6.47153      4.14179      6.60149         0.009008     -0.066164      0.037745
Li	      0.01073      4.17923      4.22563         0.048203     -0.038738     -0.029956
Li	      8.67284      6.36338     10.60929         0.076548      0.008941     -0.133700
Li	      2.13403      4.24863      6.43162         0.014480      0.023625     -0.028429
Li	      4.42213      4.13942      8.56823         0.063038     -0.018294     -0.003566
Sc	      4.31755      4.17282      0.04929         0.018811     -0.000245     -0.026575
Sc	      2.11314      2.20899      4.29697         0.040214      0.020701      0.054282
Sc	      4.23665      4.27683      4.27011        -0.009408      0.027998     -0.053294
Sc	      4.25913      6.42790      6.48239        -0.021205      0.014536      0.002068
Sc	      6.58355      6.25864      8.54692        -0.026162      0.125272     -0.007397
Ti	      2.17051      6.35124      8.57663        -0.014468      0.072267     -0.085627
Ti	      8.59150     10.47580     10.71947         0.059961     -0.271292      0.041773
Cr	      6.45433      2.12707      4.30343        -0.000685     -0.022258      0.032143
Co	      4.34472      2.19303      6.54255        -0.034209     -0.026239      0.076802
O	      2.18656      1.91953      2.25566         0.048083     -0.114424      0.013659
O	      4.47388      4.21230      2.12858         0.057705     -0.036290      0.021709
O	      4.33682      2.08030      4.29432         0.015361     -0.011837      0.033607
O	      6.50286      4.20163      4.24571         0.019107     -0.032577      0.043823
O	      6.46187      2.07860      6.28486         0.012796      0.067105      0.128188
O	      8.68788      4.28313      6.24143        -0.073254      0.026560     -0.011957
O	      2.24143      4.18720      4.24943        -0.055434      0.064567     -0.027221
O	      4.37038      6.32647      4.37365        -0.031435      0.050976     -0.069332
O	      4.28854      4.27468      6.33877        -0.010199     -0.061651      0.000259
O	      6.39858      6.38365      6.44050         0.021858      0.052483     -0.028766
O	      6.47529      4.30082      8.60780        -0.009320     -0.030389     -0.009312
O	      8.59144      6.35689      8.56042         0.051691      0.015729     -0.111550
O	      2.13331      6.33782      6.59208         0.011902     -0.032175      0.061429
O	      4.28824      8.47758      6.43534        -0.026064     -0.018728     -0.029081
O	      4.29197      6.37641      8.62364        -0.064712     -0.024069      0.061782
O	      6.46758      8.57862      8.74744        -0.029852      0.032818     -0.036374
O	      6.32281      6.46041     10.72020        -0.037314     -0.044460      0.040696
O	      8.46243      8.61768     10.73106         0.025221      0.178744     -0.009022
