# total energy = -260.80261021 eV
 
CRYSTAL
PRIMVEC
0.010265 6.470892 6.429088 
6.434790 0.043690 6.395793 
4.309076 4.310783 0.010139 
PRIMCOORD
36 1
Li	      6.43950      6.45961     12.76002         0.015583      0.005139     -0.032621
Li	      8.67940      8.67375     12.73629        -0.029898      0.035365     -0.026657
Li	      8.71769     10.66846     10.72406         0.006108     -0.034934      0.019894
Li	      4.32240      6.52452      2.25767        -0.027175      0.003029     -0.016347
Li	      6.30806      6.54907      4.25574        -0.035123     -0.002084     -0.003694
Li	      4.15937      8.46328      4.33882        -0.019164     -0.029226     -0.012935
Li	      8.71682      6.65510     10.67992        -0.005894     -0.024886     -0.010525
Li	      4.26305      6.59174      6.27359        -0.030916     -0.082257     -0.017467
Li	      8.67367      8.62476      8.71014        -0.020626     -0.008790     -0.003441
Sc	      6.62597      8.60695     10.71487         0.142371      0.058060     -0.041461
Sc	      4.25843      4.49678      4.22897         0.000254      0.110598      0.110324
Sc	      4.32615      2.14787      6.37630        -0.010290      0.021262      0.199344
Sc	      6.44127      4.34821      6.40537        -0.041803      0.053602     -0.077700
Sc	      6.40380      6.43283      8.66944        -0.108732      0.200293     -0.037177
Ti	      2.26614      6.57475      8.47135         0.451408     -0.075985     -0.051812
Ti	      6.31648      8.70409      6.36497         0.201434      0.175747      0.245075
Cr	      2.13953      4.26207      2.17537         0.123152     -0.088324      0.032064
Fe	      4.25648      2.16649      2.17201        -0.081151     -0.256127      0.151100
O	      2.16209      2.12456      2.11884        -0.177587     -0.155638      0.016625
O	      4.26000      4.29877      2.15094         0.138023      0.074045      0.043712
O	      4.36340      2.22752      4.33776        -0.004095      0.032700     -0.667287
O	      6.40125      4.32096      4.20669        -0.087097      0.058582      0.100423
O	      6.39145      2.30384      6.35468        -0.032863     -0.053302      0.007782
O	      8.52873      4.36321      6.55252         0.040951      0.004179     -0.067409
O	      2.17910      4.30456      4.34019        -0.024542     -0.109339     -0.145341
O	      4.30186      6.43873      4.29407        -0.001327      0.090272     -0.031269
O	      4.27272      4.27906      6.38715         0.021885     -0.038857     -0.005466
O	      6.48832      6.54061      6.47482         0.064690     -0.058938     -0.066446
O	      6.53328      4.36596      8.49074        -0.077981      0.003595      0.049293
O	      8.51426      6.31982      8.51903         0.005949      0.036394      0.007607
O	      2.15479      6.37340      6.54348        -0.004541      0.104591     -0.105669
O	      4.49460      8.63062      6.41790        -0.177708      0.042831      0.372199
O	      4.21357      6.49328      8.54988        -0.307109     -0.113069     -0.024184
O	      6.48923      8.67402      8.49940         0.049059      0.080820      0.019463
O	      6.41010      6.59250     10.64078        -0.011990     -0.064118      0.082543
O	      8.58553      8.66279     10.70997         0.056744      0.004769     -0.012541
