# total energy = -257.93257121 eV
 
CRYSTAL
PRIMVEC
-0.002860 6.432177 6.366920 
6.394683 -0.008775 6.372913 
4.251052 4.279914 0.006235 
PRIMCOORD
36 1
Li	     10.49047      4.29654      6.33663         0.026160     -0.019242      0.026577
Li	      8.50491      2.27509      6.38605        -0.018348      0.004360      0.015975
Li	      8.47477      4.29042      4.52408         0.004155      0.016570      0.013748
Li	      6.37090      6.33748      4.37727         0.028253     -0.009672     -0.067875
Li	      4.41077      4.26003      4.34722         0.063180     -0.056825     -0.010005
Li	      8.49132      6.28819      6.34946        -0.008923      0.007489     -0.008352
Li	      6.41660      4.34908      6.21208        -0.034423     -0.011648      0.056487
Li	      2.12426      6.42142      4.30958        -0.018467      0.011198      0.002848
Li	      4.29902      4.27439      8.37666         0.015581     -0.015830     -0.056188
Sc	      2.16674      6.47184      8.48361         0.022937      0.013691     -0.028710
Sc	      6.48645      2.13850      4.41695        -0.009525     -0.026971     -0.018725
Sc	     10.55606      6.42572      8.42562        -0.017392     -0.034583     -0.006133
Sc	      2.29112      4.29695      6.20874         0.019867     -0.046166      0.019292
Sc	      6.38143      6.38462      8.44793         0.061726     -0.007151     -0.042464
Ti	      4.21851      2.15318      2.24508        -0.222015      0.280007      0.138299
Ti	     10.51149      8.55820     10.73989        -0.191335      0.013207      0.100444
Cr	      8.50874      4.26968      8.46796         0.274187     -0.291043      0.033818
Ni	      4.26892      6.37896      6.28417         0.021508      0.059085      0.007455
O	      2.15982      2.18929      2.12804        -0.256594     -0.157165      0.025710
O	      4.18983      4.26434      2.15370         0.180281      0.171497     -0.011468
O	      4.34242      2.11488      4.08378        -0.012975      0.009834     -0.090560
O	      6.43005      4.17406      4.17875        -0.012655      0.031128      0.011814
O	      6.40403      2.10336      6.39201        -0.014091     -0.029237      0.033486
O	      8.48921      4.27017      6.53425        -0.005950     -0.004034     -0.005864
O	      1.94680      4.30311      4.19384        -0.023004     -0.013375     -0.026521
O	      4.21639      6.61515      4.19523         0.048259      0.062825     -0.024521
O	      4.26786      4.33250      6.32471         0.010561     -0.074118      0.000845
O	      6.35690      6.47696      6.39167         0.070715      0.012205     -0.032257
O	      6.42441      4.27528      8.62572        -0.001548      0.010980     -0.002926
O	      8.49792      6.30979      8.49116        -0.022014      0.063050      0.018326
O	      2.18764      6.35118      6.42602        -0.114952      0.030351     -0.005490
O	      4.28130      8.56166      6.30978        -0.008126      0.062683     -0.115211
O	      4.26675      6.53010      8.39745        -0.024877     -0.017278      0.035777
O	      6.34922      8.54617      8.48291        -0.024440      0.033153     -0.022235
O	      6.35431      6.34391     10.57586         0.023195     -0.075445      0.004524
O	      8.60609      8.56543     10.62671         0.171090     -0.003531      0.030080
