# total energy = -263.79771935 eV
 
CRYSTAL
PRIMVEC
-0.011640 6.529544 6.485468 
6.458990 0.000078 6.473826 
4.273633 4.312136 0.033134 
PRIMCOORD
36 1
Li	      6.43482      6.55308     12.91270         0.034370      0.005200     -0.036809
Li	      4.32159      8.72272      8.63396        -0.017853     -0.000777      0.025198
Li	      6.46900      8.59858     10.76313         0.019105     -0.015150     -0.034158
Li	      8.49871      4.49224      8.53343        -0.045915     -0.033933     -0.052227
Li	      8.51667      6.48797      6.59959        -0.087356      0.050400     -0.035949
Li	      6.43445      4.36993      6.64492        -0.023994      0.035389      0.021138
Li	      8.45435      6.59400     10.66718        -0.030560      0.035006     -0.039065
Li	      8.53698      8.57164      8.67417        -0.013520      0.028948     -0.039698
Li	      6.63210      6.45909      8.64386        -0.060223     -0.019027     -0.026144
Sc	      4.37346      6.59372     10.74392        -0.081177      0.053550     -0.006280
Sc	     10.54187      6.50070      8.60769         0.146278     -0.005563     -0.010355
Sc	      2.18457      2.18351      4.31586        -0.006968     -0.032362     -0.023557
Sc	      6.48299      4.43931     10.71228         0.037137     -0.087886     -0.004554
Sc	      6.39851      8.67408      6.64557        -0.027243     -0.021372      0.023242
Ti	      8.55055      2.26307      6.50763        -0.083914      0.158438      0.046033
Ti	      4.29771      4.23699      4.35831         0.008363      0.014514      0.069877
Cr	      6.41261     10.81008      8.69886         0.030623      0.050266      0.038605
Cr	      4.29424      6.48036      6.58457         0.045653      0.020588      0.028958
O	      2.13715      2.05462      2.09269        -0.017211      0.002597     -0.064546
O	      4.35951      4.35294      2.36347         0.040471     -0.009356      0.100718
O	      4.28039      2.15490      4.35199         0.038534      0.105886      0.042725
O	      6.42541      4.36445      4.26915        -0.063267     -0.082615     -0.034386
O	      6.67078      2.09995      6.52367         0.141660     -0.020778      0.026974
O	      8.58740      4.14115      6.47647         0.015324     -0.201749     -0.007392
O	      2.15963      4.30113      4.38487         0.042481      0.063938      0.030032
O	      4.33279      6.48616      4.27485        -0.047332     -0.045822     -0.096530
O	      4.22841      4.28188      6.30255         0.000093      0.040897     -0.138936
O	      6.34685      6.55961      6.45084         0.054616     -0.001243      0.018297
O	      6.43360      4.25583      8.69423        -0.004127     -0.006485      0.000744
O	      8.59721      6.47761      8.60295        -0.067146      0.030141     -0.001173
O	      2.21596      6.55096      6.62659        -0.044015      0.024480      0.050082
O	      4.23894      8.73879      6.47140        -0.003664     -0.044985     -0.038087
O	      4.14430      6.51278      8.72395        -0.011328     -0.015307      0.088689
O	      6.41573      8.81295      8.64120         0.024528     -0.064898     -0.034037
O	      6.40444      6.47219     10.75170         0.061982      0.025839      0.024688
O	      8.65453      8.71808     11.02249        -0.004405     -0.036771      0.087882
