# total energy = -251.67273968 eV
 
CRYSTAL
PRIMVEC
-0.001492 6.456625 6.450809 
6.455510 0.029302 6.420098 
4.322436 4.302499 0.000904 
PRIMCOORD
36 1
Li	      6.57679     10.55782      8.59482        -0.018031      0.002579     -0.059265
Li	      4.36292      8.61919      8.55804         0.004281     -0.016075      0.010113
Li	      6.41305      6.55218      4.51634        -0.072432      0.074890     -0.010311
Li	      8.49590      6.55804      6.39410         0.040784      0.019699      0.037362
Li	      6.35755      4.48885      6.47930        -0.024602      0.008912      0.007066
Li	      4.35979      8.57828      4.33266         0.041201     -0.010611     -0.000279
Li	      6.51242      8.50815      6.46287         0.014984      0.018696     -0.011708
Li	      4.44085      6.43737      6.39943        -0.030187      0.024234      0.029905
Li	      4.13982      4.42146      8.42094         0.037580     -0.012321     -0.014424
Sc	      4.34028     10.67354      6.47816        -0.045800      0.006120      0.007953
Sc	      2.24049      8.58563      6.44629        -0.018344      0.033063     -0.003740
Sc	      6.44891      2.31775      8.51715        -0.043271     -0.068725      0.017519
Sc	      4.34906      4.26252      4.42760         0.133881     -0.097238     -0.029374
Sc	      6.44762      6.50099      8.47390        -0.030237     -0.056836      0.012338
Ti	      8.37267      4.48564      4.20339        -0.223542      0.133082      0.033367
Ti	      2.16598      6.35818      4.33181        -0.069794     -0.268324      0.023868
Cu	      6.47911      8.59959     10.70309        -0.121677      0.043553      0.075648
Cu	      2.14788      4.27722      2.18837         0.055874     -0.005128     -0.098247
O	      2.05783      2.27211      2.06860         0.012897     -0.016091      0.055772
O	      4.20986      4.38247      2.12743         0.095522      0.003552     -0.024200
O	      4.34650      2.07494      4.26326        -0.002432     -0.080337      0.050406
O	      6.53488      4.45943      4.23049         0.273684      0.164566      0.014982
O	      6.51085      2.09875      6.39086        -0.012245      0.008240      0.122901
O	      8.72343      4.25910      6.10878        -0.019502     -0.008925     -0.319624
O	      2.24598      4.45146      4.41357         0.022939      0.210247      0.095402
O	      4.15557      6.41239      4.23301        -0.077956      0.072241      0.009854
O	      4.36686      4.30104      6.36058        -0.023155     -0.020780      0.069623
O	      6.46355      6.49312      6.51441         0.023472      0.070940     -0.013383
O	      6.60511      4.34692      8.56194        -0.098913     -0.020459      0.021209
O	      8.61874      6.42843      8.72433        -0.028830      0.075618     -0.007846
O	      2.12295      6.49489      6.30723         0.003042     -0.002038     -0.042971
O	      4.25692      8.65044      6.49715         0.041465     -0.052411     -0.023502
O	      4.34826      6.42215      8.80649         0.036744      0.000244      0.143186
O	      6.46136      8.57251      8.73621        -0.012092      0.033988     -0.145713
O	      6.63207      6.34799     10.73490         0.072855     -0.203603     -0.006869
O	      8.55645      8.55204     10.74881         0.061835     -0.064564     -0.027019
