# total energy = -90.30325911 eV
 
CRYSTAL
PRIMVEC
0.000198 1.980989 1.979310 
5.942519 6.001706 -4.016562 
-3.969027 2.008779 -2.007426 
PRIMCOORD
16 1
Li	     -1.90879      3.84194     -1.93763        -0.414683      0.133150     -0.305791
Li	      1.93131      5.69592     -3.79074         0.223494      0.447612     -0.750282
Li	     -0.00574      3.82646     -0.02637         0.018047     -0.214117      0.372760
Li	      3.76909      5.82068     -2.00919         0.651281      0.029860      0.242560
Mn	     -3.80505      1.92889     -1.92442        -4.261838     -1.609206      0.421525
Mn	     -0.00978      5.75379     -1.94867        -2.261957      1.624596      0.208888
Ni	      3.79309      7.67363     -3.86377         1.747607      0.930414      0.003182
Ni	      1.90685      3.84193     -1.93800         1.586831     -1.380773     -0.254973
O	      3.92199      5.77253     -3.86286         1.231627     -0.578632     -0.396634
O	      0.00481      5.65041     -3.74680        -0.134648      1.035889     -2.094997
O	      1.88568      7.79392     -3.98208        -0.002319      1.711210     -1.220023
O	     -2.03031      3.80091      0.00295         0.627198     -0.083469      0.414440
O	     -0.00506      3.93930     -2.03455        -1.615552     -1.964574      0.917978
O	      1.77837      5.74317     -1.93838         1.997827      1.363153     -0.193829
O	     -0.00028      1.81492      0.08870         0.238397     -0.618920      0.796508
O	      2.02608      3.85499     -0.04933         0.368688     -0.826194      1.838688
