# total energy = -258.27440353 eV
 
CRYSTAL
PRIMVEC
0.016928 6.497978 6.480149 
6.304525 0.017579 6.479349 
4.223908 4.351544 -0.008595 
PRIMCOORD
36 1
Li	      6.34900     10.81255      8.62750        -0.008325      0.022255     -0.045437
Li	      6.37070      8.64272     10.67695        -0.013382     -0.065881     -0.040227
Li	      2.00721      4.39562      2.34009        -0.009899     -0.026618      0.026046
Li	      6.27516      6.64955      4.40729        -0.030953      0.033779      0.061599
Li	      6.23442      4.52298      6.58623        -0.003077      0.044897      0.038863
Li	      0.19079      4.35911      4.23304         0.000936     -0.006269     -0.020187
Li	      8.37011      6.35833     10.68620         0.016009     -0.029976     -0.015522
Li	      6.32457      8.61007      6.39867        -0.026242     -0.050663     -0.014159
Li	      6.38515      6.43490      8.61937        -0.008445      0.019567      0.000287
Sc	      8.43747      8.70161     12.92451         0.054308     -0.091172      0.189036
Sc	      4.35929      8.70325      8.66265         0.093091      0.014324     -0.033798
Sc	      0.02797      2.26686      2.27358         0.105732      0.083312      0.140154
Sc	      4.12989      4.36659      4.34118        -0.132629      0.001699     -0.067963
Sc	      8.27962      6.52388      6.54745        -0.016005      0.096072      0.048600
Ti	      6.44058      6.49356     12.80896         0.267657     -0.027107     -0.448167
Ti	      8.25009      4.29829      4.23022        -0.197804     -0.073529     -0.126979
Fe	      8.38393      8.73201      8.62008         0.028768     -0.015854      0.051556
Co	      4.26902      6.42474      6.43961         0.029835     -0.025164     -0.071035
O	      2.13383      2.20449      2.02171        -0.049698      0.028689     -0.091686
O	      4.26175      4.32468      2.14557         0.024866      0.045062     -0.049818
O	      4.23310      2.11444      4.31381         0.028000     -0.027110      0.066904
O	      6.42766      4.36274      4.33254         0.377699     -0.060317     -0.046498
O	      6.31553      1.96225      6.56478        -0.039298     -0.124416      0.005265
O	      8.51331      4.36031      6.30623         0.041496      0.056281     -0.094053
O	      2.17328      4.33109      4.31586         0.106840     -0.022736     -0.001929
O	      4.23493      6.44925      4.34045         0.002928     -0.073056      0.062671
O	      4.23363      4.30081      6.42121        -0.003813      0.087298     -0.107120
O	      6.32811      6.50184      6.50089        -0.004579     -0.016305      0.031634
O	      6.24056      4.29294      8.64013         0.026660     -0.093120      0.019929
O	      8.46818      6.52684      8.58761        -0.015316     -0.223767     -0.091210
O	      2.03416      6.57539      6.41268        -0.328850      0.029005      0.013188
O	      4.22820      8.81090      6.53021        -0.005280      0.103187     -0.004773
O	      4.23117      6.58787      8.75551        -0.038459      0.064814      0.114145
O	      6.36627      8.71594      8.64928        -0.210243      0.055806     -0.002946
O	      6.26638      6.51340     10.96332        -0.017480     -0.015741      0.457602
O	      8.41124      8.89933     10.83834        -0.045049      0.282753      0.046027
