# total energy = -256.44753024 eV
 
CRYSTAL
PRIMVEC
0.009333 6.505533 6.402445 
6.421954 0.028277 6.384047 
4.298279 4.341681 0.001509 
PRIMCOORD
36 1
Li	      6.46591      6.54330     12.74653         0.020541      0.012288     -0.022504
Li	      2.20805      8.57448      6.38814        -0.030845     -0.016129      0.039913
Li	      4.30791      6.45636      2.19726         0.020958     -0.031719     -0.016450
Li	      2.19469      4.31951      2.21510        -0.006583     -0.015366     -0.014868
Li	      2.07742      2.21545      4.20987        -0.038712     -0.012124     -0.000468
Li	      4.27617      4.47061      4.18682         0.030387      0.105314      0.031765
Li	      2.18805      6.48134      4.32440        -0.033384     -0.014550     -0.013326
Li	      4.18518      6.59361      6.35484        -0.006611      0.052855     -0.024321
Li	      8.63769      8.68215      8.56483        -0.016794     -0.009249      0.007086
Sc	      2.10683      0.07993      2.12528         0.085987      0.064270      0.026436
Sc	      4.17767      2.27372      2.13514        -0.094402     -0.036915     -0.002563
Sc	      6.41213      4.33235      6.35567         0.048461     -0.012098     -0.007313
Sc	      2.21200      4.41768      6.28404        -0.015196     -0.006239     -0.015143
Sc	      6.40117      6.52505      8.60734        -0.061438     -0.009995     -0.031022
Ti	      4.27433      8.52466      4.27697         0.039332     -0.454038     -0.008792
Ti	      8.65551      6.42939      6.51046         0.103771     -0.244798      0.190668
Fe	      6.54387      8.65649     10.68814         0.059590      0.027381     -0.041299
Cu	      8.63336     10.84884     10.68933         0.012073     -0.035177      0.010454
O	      2.17948      2.12328      2.11630         0.068094     -0.085295      0.031478
O	      4.34923      4.29107      2.20527        -0.000076     -0.061020     -0.018050
O	      4.36928      2.01903      4.29287         0.023455      0.074920      0.018517
O	      6.46647      4.31266      4.28342        -0.017890      0.212663      0.010549
O	      6.29214      2.23487      6.42264        -0.170735      0.011690      0.111206
O	      8.51583      4.52295      6.48600        -0.023444      0.307949      0.169664
O	      1.94538      4.33333      4.26896        -0.152573     -0.007689      0.023082
O	      4.23096      6.68866      4.25920         0.007767      0.527873     -0.018521
O	      4.30346      4.17561      6.28474        -0.025069     -0.065035      0.027256
O	      6.58046      6.49994      6.42112         0.073659      0.003272      0.001369
O	      6.36529      4.43749      8.59302         0.002860      0.080045      0.121734
O	      8.52088      6.57540      8.37778        -0.005622      0.014392     -0.227021
O	      2.17654      6.43281      6.44796        -0.040095     -0.081489     -0.019030
O	      4.35529      8.67920      6.29248         0.000625      0.031703     -0.102825
O	      4.30766      6.61653      8.41227         0.012284      0.030226     -0.155415
O	      6.39946      8.68985      8.46531         0.005729     -0.023442     -0.105592
O	      6.46382      6.48708     10.64354         0.008302     -0.275933      0.010626
O	      8.66718      8.83397     10.68605         0.115595     -0.058543      0.012718
