# total energy = -255.70724684 eV
 
CRYSTAL
PRIMVEC
-0.004383 6.453823 6.332502 
6.567352 -0.021021 6.349244 
4.357705 4.293333 0.006383 
PRIMCOORD
36 1
Li	      2.24961      6.45035      8.39879         0.034246      0.010755      0.059176
Li	      4.34984      8.55653      8.42942        -0.027460     -0.015041      0.022015
Li	      4.33828      0.07354      4.18797        -0.050757     -0.015059     -0.005936
Li	      2.23539      2.12104      4.24275        -0.039651     -0.041235     -0.018728
Li	      8.63084      6.38575      6.31269         0.036591      0.052172     -0.030395
Li	      0.13282      4.30255      4.32808         0.057081     -0.021013     -0.007819
Li	      2.15249      6.38449      4.32594         0.003698     -0.003888      0.015521
Li	      6.32576      8.69516      6.35953         0.049737      0.049036      0.002287
Li	      4.41288      6.51875      6.25810        -0.000939      0.018918     -0.029425
Sc	      2.32682      8.51103      6.23902         0.076771     -0.102346     -0.018304
Sc	      6.45877      2.09317      4.28995         0.046990      0.172613     -0.041048
Sc	      4.36048      6.45139      2.19883         0.107874      0.165181      0.100976
Sc	      4.31475      4.27657      4.38580         0.260790      0.111903      0.068804
Sc	      4.33892      4.30487      8.43450         0.178894      0.063956     -0.013661
Ti	      2.23012      4.28747      2.15005        -0.144758     -0.190504      0.167138
Ti	      6.44765      6.49116      8.40336        -0.319634     -0.101642      0.048947
Fe	      6.62968      4.35122      6.22408        -0.197928      0.200085      0.546462
Ni	      0.07149      6.38419      6.28366        -0.163045      0.079179     -0.111771
O	      2.08930      2.33878      2.08121         0.055075      0.117354     -0.049057
O	      4.15441      4.36234      2.13916        -0.053756     -0.012776     -0.051939
O	      4.41787      2.19428      4.22182        -0.035990     -0.046730      0.025744
O	      6.47271      4.23502      4.19912        -0.195866     -0.318338     -0.605255
O	      6.64755      2.07220      6.37087        -0.087264      0.259190     -0.092036
O	      8.79107      4.24921      6.49229        -0.088446      0.120868      0.006507
O	      2.21489      4.29353      4.05663        -0.061232      0.003732     -0.176719
O	      4.38186      6.36583      4.18539        -0.046280      0.060561     -0.055379
O	      4.43258      4.27558      6.39826         0.040637     -0.113346     -0.042970
O	      6.59890      6.42482      6.53582         0.115458     -0.184738      0.074594
O	      6.60443      4.31462      8.44164         0.032126      0.125547      0.326306
O	      8.72484      6.36795      8.46051        -0.042038     -0.015370     -0.039430
O	      2.10299      6.49675      6.40161         0.160771      0.017822      0.023415
O	      4.32735      8.66348      6.33825         0.028639     -0.255938      0.028952
O	      4.56358      6.37498      8.45034         0.250072      0.005434     -0.059505
O	      6.62480      8.42439      8.47440        -0.051759     -0.154494     -0.025103
O	      6.55268      6.45799     10.42749         0.037770     -0.022668     -0.069180
O	      8.62070      8.59633     10.53416         0.033583     -0.019179      0.026815
