# total energy = -258.03771236 eV
 
CRYSTAL
PRIMVEC
0.002976 6.458150 6.400764 
6.394984 0.017210 6.386262 
4.285355 4.317768 -0.010569 
PRIMCOORD
36 1
Li	      6.40485      6.52331     12.72613         0.008300     -0.014185      0.017287
Li	      8.56362      4.35323      4.33210         0.029005      0.009632      0.011244
Li	      6.42389      8.56596     10.66196         0.038949     -0.034180     -0.031454
Li	      4.19263      4.26346      4.40638        -0.005290     -0.023152     -0.068101
Li	      4.25729      2.28179      6.26624         0.019439      0.010482     -0.022433
Li	      2.11679      6.47549      4.39090        -0.039696     -0.001043      0.024199
Li	      2.36172      4.35078      6.28403        -0.011295      0.078889     -0.001221
Li	      4.19240      6.33591      6.40741        -0.021005      0.017724      0.013936
Li	      4.25530      4.29210      8.44516        -0.012841     -0.003697     -0.004423
Sc	      2.22291      6.40392      8.54430         0.003815     -0.065579     -0.030554
Sc	      4.32108      8.62251      8.56412         0.010298      0.071629     -0.044987
Sc	      8.54335      4.34713      8.50725         0.049612      0.002396      0.027872
Sc	      6.27615      4.33090      6.25131         0.009116     -0.039780     -0.047382
Sc	      4.26926      8.67040      4.36487        -0.052967      0.060169      0.076098
Ti	     10.56308      6.44452      8.53013        -0.069653     -0.076526      0.078847
Ti	      6.41583      6.56399      8.50552        -0.038336      0.110585      0.143693
Fe	      8.51384      8.58132     12.65503        -0.020022      0.006126      0.106540
Fe	      6.49607      6.47243      4.37737        -0.074265      0.043433     -0.017220
O	      2.11229      2.13525      2.08578        -0.032492      0.021840      0.014412
O	      4.28242      4.38737      2.11760        -0.029516      0.055818      0.035813
O	      4.21231      2.16887      4.18662         0.028290     -0.023514      0.014671
O	      6.40552      4.30457      4.21044         0.039235      0.003910      0.062945
O	      6.44348      2.19758      6.57027        -0.039691      0.017735      0.043714
O	      8.46479      4.18678      6.45061        -0.015507      0.053155     -0.018675
O	      2.07007      4.31961      4.21680         0.026357     -0.023154      0.033925
O	      4.37546      6.54806      4.04581        -0.042500     -0.024203     -0.095965
O	      4.30973      4.34049      6.37198         0.054266     -0.027434      0.011994
O	      6.44830      6.42096      6.57245         0.009837     -0.021737     -0.005417
O	      6.38756      4.31472      8.52628        -0.005761     -0.004621     -0.041583
O	      8.58417      6.46347      8.49988         0.028600      0.029681     -0.006056
O	      2.12310      6.57243      6.49005         0.025559     -0.081963     -0.005926
O	      4.15738      8.67189      6.40892         0.053607     -0.003320      0.014685
O	      4.36753      6.53597      8.51141         0.043879     -0.042277     -0.038055
O	      6.40879      8.56806      8.51276         0.050610     -0.067569     -0.017646
O	      6.43470      6.43208     10.42781        -0.028448     -0.007456     -0.113401
O	      8.58026      8.60363     10.74365         0.010511     -0.007815     -0.121379
