# total energy = -259.75997945 eV
 
CRYSTAL
PRIMVEC
-0.019673 6.515107 6.569595 
6.523232 -0.036078 6.586245 
4.311908 4.317366 0.013101 
PRIMCOORD
36 1
Li	      2.13791      8.66417      6.58033        -0.011810     -0.025950      0.018142
Li	      6.56801     10.73139      8.95536         0.000588      0.013165     -0.024020
Li	      4.51057      8.45561      8.94047        -0.049791      0.043106      0.018809
Li	      4.18394      0.12086      4.20816         0.009723      0.010604     -0.036336
Li	      6.30884      2.34757      4.19401         0.030767     -0.029179     -0.014718
Li	      4.54952      4.15035      4.40771        -0.034509     -0.005830     -0.064355
Li	      6.46066      8.54665      6.74421        -0.047606     -0.017969      0.023203
Li	      4.43368      6.50339      6.73733         0.047194      0.017569      0.013695
Li	      6.28049      6.69027      8.67948         0.038951     -0.039576     -0.042897
Sc	      4.30589     10.81539      6.60255         0.024413      0.050693      0.019926
Sc	      0.04808      2.14276      2.17646         0.060872     -0.065227     -0.177597
Sc	      2.14632      4.30143      2.19430         0.105705     -0.080490     -0.037547
Sc	      4.27138      2.20369      6.44457        -0.053601     -0.050665     -0.013138
Sc	      4.17909      4.49097      8.72889        -0.030286      0.043585      0.008039
Ti	     10.76920      8.67319     11.05501        -0.129331      0.160186      0.392993
Ti	      2.18478      6.48111      4.48129         0.002309      0.043024      0.416991
Mn	      6.55218      6.34779      4.38968        -0.097751      0.075092      0.132335
Co	      6.48622      4.31685      6.44332        -0.008585     -0.143624     -0.215967
O	      2.07004      2.25970      2.23179        -0.003179      0.033042      0.033404
O	      4.24055      4.38802      2.11284        -0.015582      0.010188      0.011066
O	      4.35474      2.15570      4.45202         0.031470      0.021263     -0.009317
O	      6.49769      4.27058      4.44170         0.010844     -0.021920      0.212311
O	      6.47336      2.06628      6.68131        -0.017396     -0.168793      0.043899
O	      8.71324      4.34480      6.69011        -0.185601     -0.033179      0.054032
O	      2.00636      4.48155      4.32010        -0.048920      0.089961     -0.014542
O	      4.17497      6.61283      4.36214        -0.138362      0.050264     -0.031705
O	      4.40068      4.24764      6.67358         0.211011      0.064832     -0.007226
O	      6.53945      6.44904      6.56765         0.017306      0.238376      0.009391
O	      6.53291      4.23678      8.91859        -0.002888      0.013824      0.032800
O	      8.73057      6.44255      8.90103         0.010230     -0.024351      0.030640
O	      2.07792      6.53914      6.32364         0.030298     -0.025493     -0.397083
O	      4.26744      8.71253      6.33581         0.018649      0.015541     -0.394856
O	      4.31699      6.45629      8.78511        -0.010738     -0.051347      0.005288
O	      6.52051      8.66442      8.76566         0.036519      0.023222      0.016817
O	      6.64705      6.30560     11.01370         0.063273     -0.155112      0.016958
O	      8.82697      8.46415     10.90470         0.135812     -0.078830     -0.029435
