# total energy = -263.09277497 eV
 
CRYSTAL
PRIMVEC
0.048702 6.389508 6.491866 
6.538003 0.004912 6.535322 
4.370227 4.299784 -0.008287 
PRIMCOORD
36 1
Li	      6.42390      0.17262      6.47100        -0.065792      0.018697     -0.119061
Li	      2.13370      2.15603      0.05810         0.009203      0.015407      0.019366
Li	      6.53646      4.38610      2.26259         0.010691     -0.041276      0.044701
Li	      4.31451      2.12534      2.39028        -0.026835      0.005009      0.018774
Li	      4.40377      0.19473      4.40049         0.085558     -0.010988      0.011680
Li	      6.33365      2.18767      4.37874         0.024056      0.051126     -0.054779
Li	      2.35222      2.01428      4.21854         0.030123     -0.043866     -0.037370
Li	      4.52854      2.00175      6.34064         0.071781      0.031777     -0.047104
Li	      6.54639      6.47764      8.68712        -0.011576     -0.001200      0.004789
Sc	      2.26904      4.18437      2.09565         0.013850      0.010092     -0.044957
Sc	      6.64998      4.22033      6.37294         0.043550     -0.007437     -0.010338
Sc	      8.70782      6.48187     10.91117        -0.186942      0.024057      0.000734
Sc	      6.55178      8.50732      6.56947         0.002517      0.004768      0.109634
Sc	      8.71521      8.56512      8.72984        -0.033866      0.030093     -0.004549
Ti	      6.55832      4.33001     10.84860        -0.003890      0.339240     -0.015658
Ti	      4.38914      6.49057      6.61030         0.007230      0.068158      0.408211
Mn	      0.12549      2.02304      2.04778        -0.010028      0.017331     -0.019301
Cr	      4.43039      4.17945      4.31361        -0.022925     -0.041325      0.012442
O	      2.20590      2.19507      2.16915         0.044520      0.010321      0.013919
O	      4.33197      4.24669      2.32194        -0.015997     -0.076403      0.055686
O	      4.35404      2.24263      4.37652        -0.006226      0.061721     -0.011705
O	      6.40846      4.29020      4.36871        -0.045801     -0.013324      0.027795
O	      6.55528      2.19555      6.48649         0.011249      0.020110     -0.048609
O	      8.67122      4.34107      6.58707         0.036753     -0.042435     -0.030766
O	      2.21748      4.32532      4.34435         0.020936     -0.040134      0.015071
O	      4.31545      6.46252      4.44438         0.015051     -0.068363      0.058295
O	      4.37777      4.36512      6.46824        -0.016592      0.009183     -0.023136
O	      6.36458      6.41753      6.49893        -0.142164     -0.012635      0.002331
O	      6.56117      4.28596      8.73708         0.035686      0.040234      0.024968
O	      8.77821      6.45047      8.81371        -0.021418     -0.043304      0.023606
O	      2.34848      6.33083      6.45053         0.102899      0.047170     -0.010001
O	      4.43999      8.40319      6.34219        -0.033059     -0.145600     -0.023821
O	      4.39302      6.36455      8.49665        -0.001341      0.037169     -0.342466
O	      6.70378      8.50145      8.56805        -0.025873      0.007762      0.003790
O	      6.62614      6.22717     10.90963         0.035684     -0.272888     -0.042130
O	      8.90009      8.53393     10.78656         0.068987      0.011755      0.029960
