# total energy = -258.52760472 eV
 
CRYSTAL
PRIMVEC
0.025744 6.500712 6.408210 
6.414915 0.046290 6.388108 
4.305811 4.349651 0.001761 
PRIMCOORD
36 1
Li	      6.38221      4.31590      2.21986        -0.038681     -0.006510      0.055780
Li	      4.33960      2.27463      2.18011         0.015786      0.043477     -0.015516
Li	      6.29634      2.25113      4.23127        -0.038699      0.008266      0.003698
Li	      4.33933      6.43026      2.16157        -0.004168     -0.051790      0.003758
Li	      4.32887      4.26911      4.14823        -0.031291     -0.018408     -0.088682
Li	      4.28822      2.23545      6.25783        -0.010829      0.066822     -0.016819
Li	      4.34080      8.68591      4.36652         0.034944      0.015940      0.026858
Li	      6.37532      8.73975      6.42728        -0.038762      0.047186      0.032157
Li	      4.32201      6.57428      6.39566         0.019250      0.011313      0.024103
Sc	      4.30806      4.32402      0.05531        -0.022236      0.062146      0.051583
Sc	      2.25263      8.62076      6.51926        -0.015212     -0.016135      0.093037
Sc	      2.18567      2.24850      4.20992        -0.125706      0.145144     -0.104888
Sc	      8.53841      8.75938      8.58525         0.051322     -0.048417     -0.035684
Sc	      6.42764      6.61096      8.49108         0.085771     -0.026596     -0.010319
Ti	      6.29256      4.30163      6.34487        -0.298991     -0.083753      0.029763
Ti	      2.34529      6.40623      4.26728         0.268434     -0.110811     -0.077217
Mn	      4.29100      0.10954      4.24678         0.036738     -0.036811     -0.021068
Cu	      2.20089      4.32608      2.12017        -0.056631     -0.036179      0.033786
O	      2.08785      2.04749      2.16040         0.000751     -0.178941     -0.026225
O	      4.18574      4.38286      2.06282         0.169767     -0.032373      0.042739
O	      4.19841      2.20098      4.26908         0.021922      0.014867     -0.059803
O	      6.42668      4.42980      4.41224        -0.007063     -0.043237      0.072166
O	      6.48017      2.32948      6.37216         0.014375      0.024334     -0.011086
O	      8.56775      4.33296      6.38035        -0.066036      0.031911     -0.194630
O	      2.16569      4.44545      4.26048         0.003205      0.095057      0.110828
O	      4.20249      6.52659      4.28870        -0.191309     -0.047047      0.016621
O	      4.45460      4.30105      6.47198         0.313162      0.010652     -0.023976
O	      6.43691      6.36952      6.37693         0.002099     -0.055688      0.010968
O	      6.50492      4.44228      8.35685        -0.134004     -0.006534     -0.110025
O	      8.55721      6.65747      8.70531         0.024174      0.169958      0.134736
O	      2.12708      6.54304      6.25355         0.021553     -0.043224     -0.068071
O	      4.27082      8.78261      6.41228         0.029231      0.002414      0.038288
O	      4.37323      6.45311      8.57366        -0.029310      0.060951     -0.003556
O	      6.52514      8.66434      8.47038        -0.029308      0.028446      0.074434
O	      6.53742      6.54066     10.64767         0.006371      0.016684      0.006646
O	      8.64197      8.59071     10.68419         0.019382     -0.013114      0.005616
