# total energy = -261.76922516 eV
 
CRYSTAL
PRIMVEC
0.004165 6.510729 6.463986 
6.386914 0.027948 6.439694 
4.289361 4.355066 -0.012369 
PRIMCOORD
36 1
Li	      4.30594      4.22834      0.20072         0.007322     -0.030844     -0.037686
Li	      4.27278      2.37759      2.08395         0.010934     -0.028018      0.002123
Li	      6.42079      8.62036     10.76272         0.041624     -0.055893      0.001634
Li	      4.32227      6.26832      2.14653        -0.016563      0.007132     -0.021952
Li	      2.35201      4.33664      2.15011        -0.037082      0.006563     -0.039712
Li	      4.27725      4.28616      4.09306         0.027290     -0.057705      0.022798
Li	      4.34063      8.67234      4.42720        -0.052991      0.026002      0.002326
Li	      6.20731      8.66020      6.45274         0.033056      0.014749      0.021476
Li	      4.31035      6.69870      6.42467        -0.038672      0.031536      0.021020
Sc	      2.27575      8.69007      6.47119        -0.124383      0.014979     -0.021395
Sc	      4.32747      2.15701      6.40712         0.106784      0.015438     -0.044504
Sc	      6.36756      4.37962      6.39348        -0.033861     -0.071603      0.018250
Sc	      2.23398      6.37003      4.37947         0.031037      0.020945      0.050418
Sc	      8.53261      8.73247      8.62474         0.057272     -0.013892      0.074649
Ti	      2.02898      2.32518      4.11217        -0.044012      0.120540     -0.334449
Ti	      6.31888      6.58844      8.62647        -0.079570     -0.021100      0.162160
Mn	      6.27571      4.28223      2.10132         0.055136     -0.011644     -0.030130
Fe	      4.29787      6.56203     10.75405         0.041479     -0.093427      0.090720
O	      2.09595      2.21801      2.23493        -0.017626      0.053286      0.355551
O	      4.27083      4.35507      2.14524        -0.019898     -0.004537      0.017764
O	      4.05808      2.16792      4.36157        -0.099089      0.167405      0.037217
O	      6.44749      4.57716      4.30778         0.011719      0.101623      0.044930
O	      6.39353      2.29446      6.39465        -0.058400      0.091119      0.007381
O	      8.50174      4.37530      6.43521        -0.019641      0.028508      0.053681
O	      2.12680      4.24671      4.31191        -0.044098     -0.169245     -0.021214
O	      4.39428      6.53734      4.28282         0.136830      0.016697      0.005839
O	      4.33291      4.22802      6.56309        -0.037075      0.008552      0.027045
O	      6.44723      6.52631      6.52356        -0.034999      0.032071      0.015676
O	      6.32945      4.62495      8.51428         0.029189      0.129610     -0.020231
O	      8.43570      6.59695      8.61935        -0.074878     -0.012789     -0.010559
O	      2.17338      6.58242      6.38703         0.005777     -0.015755     -0.076043
O	      4.21702      8.72650      6.47417         0.059503     -0.041206     -0.030329
O	      4.37002      6.49578      8.60255         0.217993     -0.005163     -0.036282
O	      6.44075      8.57503      8.62378        -0.001870     -0.166859     -0.039214
O	      6.44761      6.53384     10.56031        -0.016070     -0.000308     -0.254842
O	      8.57031      8.63866     10.75203        -0.022168     -0.086764     -0.014113
