# total energy = -257.79779367 eV
 
CRYSTAL
PRIMVEC
0.012853 6.552329 6.368778 
6.514385 0.007743 6.373963 
4.334826 4.363288 0.013358 
PRIMCOORD
36 1
Li	      6.50374      6.50538     12.63387         0.016913     -0.020893     -0.006886
Li	      8.74837      8.78557     12.64914        -0.016432      0.010939     -0.012207
Li	      4.59638      6.33372     10.54938         0.041645     -0.016796      0.000929
Li	      6.64692      8.61703     10.65404         0.019011     -0.022710      0.020090
Li	      0.04092      2.17537      2.09768        -0.045177      0.015217     -0.040038
Li	     10.68763      8.83883     10.76225         0.042064     -0.007177      0.040949
Li	      4.36798      6.67895      6.31675        -0.022459      0.019632      0.024512
Li	      4.32691      4.53593      8.62493        -0.012353      0.071337     -0.053913
Li	      6.52889      6.43974      8.66309         0.029242     -0.081105     -0.052004
Sc	      4.34646      8.70930      8.45552         0.045064     -0.136856      0.002110
Sc	      4.35389      4.47209      4.22467        -0.020448      0.040305      0.139280
Sc	      4.42378      2.14332      6.33260         0.074193      0.032562      0.031804
Sc	      6.52583      4.32696      6.33248        -0.078657     -0.043465      0.015536
Sc	      8.60382      6.75235     10.65806         0.031176      0.042056     -0.020778
Ti	      2.25905      6.49926      8.39248         0.299718     -0.213157     -0.193999
Ti	      8.53282      4.36403      8.52056        -0.478746      0.175302     -0.081777
Mn	      6.44464      8.64634      6.35206         0.058404      0.016085      0.015473
Ni	      6.44200      6.55947      4.26481        -0.051784      0.030682      0.034754
O	      2.20041      2.22682      2.16728         0.012607      0.072417     -0.089776
O	      4.37462      4.30810      2.15765         0.048075     -0.007683     -0.022706
O	      4.25180      2.28111      4.25862         0.022838      0.042790     -0.013095
O	      6.43685      4.47110      4.16777        -0.033249     -0.032132     -0.074193
O	      6.43607      2.30485      6.36391        -0.029651      0.020589     -0.018520
O	      8.65026      4.38207      6.55654         0.017600     -0.010011      0.102683
O	      2.22508      4.35923      4.12982         0.010108      0.030092     -0.141484
O	      4.30390      6.49129      4.27759        -0.047294     -0.051666     -0.009505
O	      4.40168      4.27250      6.35947         0.003062     -0.041053     -0.022542
O	      6.57574      6.47992      6.35412        -0.004175     -0.025618      0.089037
O	      6.68798      4.34467      8.45689         0.432872     -0.023888     -0.018089
O	      8.69240      6.29471      8.51622         0.011490     -0.244754      0.018701
O	      2.16275      6.57484      6.49454         0.000937      0.011258      0.234035
O	      4.37137      8.71030      6.45476        -0.028682      0.040064      0.030186
O	      4.14356      6.60654      8.51459        -0.318605      0.065203      0.005962
O	      6.48024      8.97710      8.52130        -0.015788      0.271607      0.059516
O	      6.60291      6.57628     10.60930         0.008540     -0.012530      0.012036
O	      8.70463      8.70294     10.59933        -0.022060     -0.016644     -0.006080
