# total energy = -264.71165249 eV
 
CRYSTAL
PRIMVEC
0.029002 6.391071 6.363877 
6.462654 0.010916 6.381923 
4.325517 4.290313 -0.009838 
PRIMCOORD
36 1
Li	      4.38145      8.57748      8.48147         0.015855     -0.052328     -0.025753
Li	      6.43511      2.18970      4.27175         0.017607     -0.037863      0.006066
Li	      0.04182      2.14377      2.14946         0.000505      0.035533      0.014768
Li	      6.46226      6.43997      4.26571        -0.024251      0.045192      0.037247
Li	      4.30652      2.17955      6.34669        -0.015314      0.016511      0.010848
Li	      6.44551      4.26338      6.33548        -0.032883      0.012193      0.016847
Li	      0.04917      4.26545      4.22660        -0.003619      0.067065      0.015590
Li	      2.21661      6.35203      4.23325         0.020794     -0.044614      0.002627
Li	      6.52437      8.49088      6.33252         0.038304     -0.080776     -0.011317
Sc	      6.52235      6.40475     12.68152        -0.010949      0.026561     -0.154704
Sc	      8.55906      2.17639      6.32435        -0.046715      0.023355     -0.193289
Sc	      4.20785      0.15807      4.25044         0.077776     -0.040309     -0.044409
Sc	      4.42449      6.44663      6.28412         0.069544     -0.083837      0.097079
Sc	      8.69443      8.42130      8.49908         0.073653      0.028621      0.008379
Ti	      2.18393      4.24728      2.25513        -0.057478      0.031618      0.226542
Ti	      4.28845      4.22344      4.23784         0.035655     -0.082055      0.081040
Mn	      6.41247      4.24923      2.15585        -0.071053     -0.053641      0.046781
V	      6.51960      6.42456      8.49656        -0.044148     -0.020269      0.004170
O	      2.15545      2.34105      2.07052        -0.028086      0.065781      0.022111
O	      4.23908      4.26637      2.14918        -0.053815      0.009006     -0.124334
O	      4.29291      2.24825      4.23545         0.001430      0.115831     -0.038933
O	      6.43739      4.31547      4.24590        -0.024523      0.008751      0.075905
O	      6.53896      2.05226      6.39145         0.032309     -0.027114      0.027365
O	      8.67603      4.28684      6.36306        -0.009476     -0.029404      0.049027
O	      2.22924      4.26073      4.20048         0.050342     -0.021780     -0.232596
O	      4.32729      6.20229      4.27129         0.026508     -0.069970     -0.055924
O	      4.34219      4.29858      6.32829         0.016771      0.050644     -0.013394
O	      6.44860      6.42225      6.50088        -0.048500     -0.006002      0.074053
O	      6.55757      4.35221      8.54834         0.105806      0.107826     -0.012466
O	      8.62603      6.33673      8.51650        -0.002845     -0.114747      0.020166
O	      2.18116      6.45025      6.37526         0.020536      0.046798     -0.002428
O	      4.28603      8.53683      6.33474        -0.013680      0.041681      0.017080
O	      4.37151      6.34711      8.49076        -0.029295      0.023290     -0.014561
O	      6.60810      8.45096      8.49050        -0.070602     -0.072759     -0.014239
O	      6.40013      6.43057     10.59126        -0.008366      0.025408     -0.016498
O	      8.66155      8.66163     10.57469        -0.007797      0.055801      0.101152
