# total energy = -90.96553884 eV
 
CRYSTAL
PRIMVEC
0.000199 1.991307 1.989618 
5.973470 6.032965 -4.037481 
-3.989699 2.019241 -2.017882 
PRIMCOORD
16 1
Li	     -1.92873      3.88206     -1.95787        -0.337796      0.131587     -0.266816
Li	      1.95148      5.75541     -3.83033         0.180821      0.379221     -0.621426
Li	     -0.00580      3.86642     -0.02664         0.026385     -0.181461      0.299862
Li	      3.80846      5.88147     -2.03017         0.548681      0.025910      0.194682
Mn	     -3.84480      1.94904     -1.94452        -3.747932     -1.483371      0.392502
Mn	     -0.00988      5.81388     -1.96902        -1.890276      1.340737      0.124950
Ni	      3.83271      7.75377     -3.90413         1.480484      0.761216      0.002967
Ni	      1.92677      3.88206     -1.95824         1.315529     -1.147043     -0.174106
O	      3.96296      5.83282     -3.90320         1.155265     -0.436645     -0.338728
O	      0.00485      5.70942     -3.78593        -0.072589      0.881145     -1.734777
O	      1.90538      7.87533     -4.02367         0.069080      1.570656     -1.093700
O	     -2.05151      3.84060      0.00298         0.444445     -0.050934      0.350321
O	     -0.00511      3.98044     -2.05580        -1.377918     -1.625097      0.794261
O	      1.79695      5.80315     -1.95863         1.661835      1.157696     -0.213837
O	     -0.00029      1.83388      0.08962         0.227805     -0.573139      0.709438
O	      2.04724      3.89525     -0.04985         0.316180     -0.750478      1.574408
