# total energy = -263.91180923 eV
 
CRYSTAL
PRIMVEC
0.002860 6.489020 6.411173 
6.588097 -0.004766 6.418697 
4.390871 4.330091 -0.001848 
PRIMCOORD
36 1
Li	     10.88023     10.72469     12.69000        -0.009101     -0.031460      0.078277
Li	      8.87250      8.69896     12.67728        -0.008521      0.010091      0.043490
Li	      9.00104     10.66608     10.82512        -0.063771      0.021681     -0.010487
Li	      6.59344      6.51447      4.31865        -0.023985      0.021233     -0.017986
Li	      8.76892      6.41999      6.46131         0.000447      0.022938     -0.012272
Li	      6.36772      4.55217     10.69224        -0.031472     -0.030780     -0.043269
Li	      8.70539      6.53800     10.77058        -0.006433      0.004316      0.056703
Li	      4.34883      6.54830      6.31183        -0.040840      0.012004     -0.071418
Li	      6.66757      6.43717      8.65777         0.084901     -0.020191     -0.003658
Sc	      2.18049      6.49308      8.46625        -0.013451     -0.008145      0.003784
Sc	      6.65772      8.46365     10.79848         0.011065      0.087994      0.028226
Sc	     10.87038      6.52137      8.49592         0.035053      0.009619      0.079765
Sc	      6.73023      4.47172      6.36590        -0.030901      0.012192     -0.049113
Sc	      6.51704      8.57049      6.35441        -0.020167     -0.025142     -0.041934
Ti	      4.30998      8.52365      8.54679        -0.074569     -0.233028      0.070621
Ti	      4.37055      4.40760      4.35939         0.031254      0.137903      0.134369
Mn	      8.74837      4.38303      8.54721         0.002958     -0.025699      0.023460
Mn	      8.81313      8.65815      8.61674        -0.022506      0.032875     -0.089427
O	      2.34972      2.12669      2.15330         0.126247     -0.070430     -0.041414
O	      4.44850      4.32946      2.21991         0.028854     -0.027478      0.000503
O	      4.47918      2.32533      4.06783        -0.024170      0.032956     -0.106499
O	      6.39622      4.26404      4.28226        -0.033111      0.017915      0.006051
O	      6.59296      2.24469      6.43356         0.015698      0.031443      0.022509
O	      8.71512      4.38334      6.40045         0.045718     -0.060400     -0.017073
O	      2.42722      4.26437      4.30336         0.091661      0.029256      0.019403
O	      4.45578      6.28161      4.17928        -0.027305     -0.215357      0.034474
O	      4.37566      4.32971      6.28592        -0.003366      0.000789     -0.185381
O	      6.57160      6.50383      6.40002         0.033597      0.008176      0.014244
O	      6.57959      4.27337      8.50383         0.013398      0.024860      0.041739
O	      8.88166      6.51121      8.53809        -0.023148     -0.001091      0.020965
O	      2.23393      6.34334      6.50259         0.015338      0.001067     -0.091531
O	      4.45111      8.65804      6.61354        -0.030448     -0.026688      0.095062
O	      4.29273      6.65270      8.61710        -0.013348      0.270810     -0.033301
O	      6.48770      8.68728      8.54556        -0.090932     -0.014740     -0.020703
O	      6.58157      6.49854     10.70115         0.029038      0.010719      0.014193
O	      8.69921      8.66607     10.68579         0.026316     -0.010210      0.047627
