# total energy = -252.50998056 eV
 
CRYSTAL
PRIMVEC
0.032639 6.383489 6.351015 
6.445494 0.010960 6.372296 
4.318519 4.291866 -0.014005 
PRIMCOORD
36 1
Li	      4.40834      8.50064      8.48418         0.015951     -0.005362      0.008448
Li	      4.51261      6.41405     10.49841        -0.005708      0.013630      0.001519
Li	      6.41962      8.41615     10.57990        -0.024792      0.023030      0.003126
Li	     10.71262      6.41112      8.50383        -0.014878      0.020257     -0.001523
Li	      8.59246      6.47055      6.37958        -0.052473      0.017431     -0.024196
Li	      6.42686      4.40424     10.55779        -0.016700      0.049167     -0.001573
Li	      8.56257      6.37728     10.47158        -0.015086      0.053687      0.041552
Li	      4.39664      6.43531      6.32711         0.035972     -0.011215     -0.005091
Li	      6.53027      6.38874      8.62419         0.002013     -0.003978      0.009085
Sc	      6.43979      6.44809     12.59639        -0.050545      0.023657      0.030160
Sc	      2.28910      8.48237      6.24125         0.019837     -0.003871     -0.054052
Sc	      2.13252      2.19840      4.23048        -0.036150     -0.005604      0.006958
Sc	      6.47701      4.28731      6.41052         0.019670     -0.017031      0.005669
Sc	      8.66010      8.40408      8.59506         0.030228      0.017961      0.011085
Ti	      2.29835      6.34278      8.49507         0.316636     -0.046244     -0.056226
Ti	      4.25703      4.30417      4.18939        -0.077050      0.047030     -0.029423
Ni	      8.54932      4.43278      8.48951         0.038803     -0.132012      0.018521
Ni	      6.43693      8.49710      6.37328         0.022171      0.013046     -0.024828
O	      2.16969      1.97826      2.11540        -0.017758     -0.059330      0.019398
O	      4.35111      4.29306      2.21808         0.054801      0.003937      0.085900
O	      4.23103      2.34926      4.22584        -0.016678      0.047036      0.002798
O	      6.34325      4.32989      4.16472        -0.027938     -0.034096     -0.058491
O	      6.57233      2.17814      6.34023        -0.013273     -0.025315      0.020054
O	      8.61526      4.23505      6.44255         0.008058     -0.007925     -0.158581
O	      2.26700      4.28517      4.21752         0.070670     -0.025417      0.028488
O	      4.37168      6.22587      4.24495         0.010946     -0.111996     -0.017957
O	      4.34842      4.26182      6.28674         0.026600      0.019548     -0.061355
O	      6.46268      6.39813      6.27760         0.013551     -0.077063     -0.007944
O	      6.45086      4.28381      8.44323        -0.058703     -0.014291      0.020637
O	      8.61556      6.42130      8.46866        -0.025362      0.094584     -0.032317
O	      2.11623      6.37860      6.52328         0.065754      0.028042      0.087800
O	      4.36087      8.59817      6.34112        -0.090427     -0.012693      0.033395
O	      4.13765      6.32787      8.53497        -0.281455      0.010332     -0.039115
O	      6.52866      8.68182      8.42594        -0.015514      0.119355      0.149627
O	      6.44064      6.43851     10.65152         0.069666     -0.029045      0.029310
O	      8.68430      8.50025     10.60227         0.019162      0.020755     -0.040860
