# total energy = -263.79465592 eV
 
CRYSTAL
PRIMVEC
0.003899 6.460975 6.479842 
6.416560 0.028822 6.455144 
4.310126 4.323211 -0.013162 
PRIMCOORD
36 1
Li	      6.47028      8.67906     10.73509        -0.007493      0.024242     -0.028696
Li	      8.40747      4.45616      8.77729         0.017353      0.001192      0.051385
Li	      6.38291      6.44147      4.42392        -0.009612     -0.091694     -0.006492
Li	      4.25984      4.44561      4.46287        -0.012153      0.010541     -0.029478
Li	      6.26687      4.50698      6.53676         0.019955     -0.046710      0.020324
Li	      6.48815      4.32804     10.62614         0.005324     -0.008987     -0.002191
Li	      4.49113      6.27873      6.30257        -0.003630     -0.038539     -0.050825
Li	      4.40530      4.33006      8.55292        -0.004151      0.000767     -0.062559
Li	      6.48811      6.28732      8.53012        -0.033815      0.004812     -0.065530
Sc	      8.55751      8.64268     12.87125         0.003390      0.008581      0.100188
Sc	      6.49060      4.28405      2.24316        -0.013440      0.032189     -0.040414
Sc	      4.29882      2.21629      2.24656        -0.008430      0.031009      0.011983
Sc	      6.37353      2.34840      8.71976         0.035991     -0.121869     -0.021637
Sc	      2.22225      4.19882      6.40023        -0.011840     -0.039814      0.024842
Ti	      6.31147      0.06584      6.36472        -0.006156      0.014350      0.026290
Ti	      4.31883      6.45868     10.77724        -0.058551      0.069874     -0.050362
V	      8.58272      6.44670      6.44304        -0.002056      0.053179      0.033718
Cr	      8.56374      6.47584     10.69707         0.019002      0.067961      0.032346
O	      2.15505      2.08876      2.07189        -0.006108      0.024792      0.010508
O	      4.37051      4.32260      2.03589        -0.019913     -0.000412     -0.018810
O	      4.34978      1.99739      4.30501        -0.017252     -0.106660     -0.029521
O	      6.61954      4.32059      4.24520         0.102412     -0.014207      0.006763
O	      6.43700      2.04491      6.50894         0.038409     -0.139858     -0.032384
O	      8.59811      4.28172      6.37676         0.073783     -0.031380     -0.074772
O	      2.13148      4.46911      4.35575        -0.018130      0.061661     -0.026816
O	      4.16899      6.48942      4.28818        -0.012516      0.005569      0.001840
O	      4.24150      4.23747      6.45120         0.008867      0.115411     -0.000539
O	      6.47274      6.52089      6.40822        -0.080643     -0.036849      0.030546
O	      6.44020      4.28877      8.59729        -0.005391      0.058513     -0.010683
O	      8.61363      6.50043      8.67962        -0.061186     -0.008939      0.089337
O	      2.04225      6.49025      6.38126        -0.033098      0.043633     -0.012588
O	      4.25202      8.78636      6.56213        -0.010007      0.132429     -0.026533
O	      4.26503      6.55167      8.75869         0.048547     -0.029859      0.112308
O	      6.34988      8.73113      8.53430         0.029770     -0.006973      0.041756
O	      6.45946      6.49465     10.88555         0.022747     -0.021533      0.019684
O	      8.58831      8.72893     10.82143         0.010021     -0.016423     -0.022986
