# total energy = -257.99872621 eV
 
CRYSTAL
PRIMVEC
0.001552 6.462646 6.422759 
6.435106 -0.029011 6.452472 
4.270510 4.308873 0.000420 
PRIMCOORD
36 1
Li	      6.31319      4.39329      2.19313        -0.031559      0.081604      0.043564
Li	      4.19416      6.44996      2.24412         0.037727     -0.029536      0.007912
Li	      2.17095      4.37616      2.26876         0.013456     -0.017383     -0.010138
Li	      6.33927      6.50748      4.34521        -0.019319     -0.044390      0.005909
Li	      4.11713      4.42722      4.26694         0.027487      0.024269     -0.004848
Li	      6.34917      4.27286      6.53490        -0.003897      0.008299      0.004044
Li	      2.30287      6.28229      4.16538        -0.010227      0.002472     -0.016573
Li	      2.27310      4.18096      6.23034        -0.005120     -0.069319     -0.019389
Li	      4.42694      4.12933      8.45351         0.038397     -0.044620     -0.023306
Sc	      0.06022      0.04845      0.04765         0.037387     -0.049662      0.077219
Sc	      4.19494      2.23740      2.22624        -0.063279      0.064440     -0.043476
Sc	      0.14771      4.20829      4.20242         0.004348     -0.079519      0.012288
Sc	      4.27074      6.26215      6.39886        -0.009915     -0.021465      0.002004
Sc	      6.59512      6.39425      8.52823         0.021001      0.000746     -0.061596
Ti	      8.45717      4.24291      4.26407        -0.204042     -0.025627     -0.031207
Ti	      6.48865      2.27455      4.26175         0.063833      0.186061     -0.185968
V	      2.10296      2.17865      0.08994         0.024726      0.024364      0.005688
Ni	      4.24189      2.25368      6.43975         0.021427     -0.083241     -0.029334
O	      2.15676      2.16615      2.02940        -0.001132      0.030681      0.061705
O	      4.28716      4.24609      2.06723        -0.020289      0.016434     -0.015300
O	      4.37050      2.02132      4.32537         0.054904     -0.074410     -0.047388
O	      6.49094      4.22616      4.29888         0.144820     -0.149729     -0.004040
O	      6.42556      2.09968      6.30016         0.017102     -0.003496     -0.079252
O	      8.60930      4.21482      6.26746         0.024242      0.020724     -0.112399
O	      2.09334      4.30765      4.28640        -0.005115     -0.026188     -0.031132
O	      4.26833      6.49276      4.37077         0.015135      0.021392      0.006939
O	      4.25052      4.29718      6.43807         0.018931      0.077440      0.002074
O	      6.38012      6.45469      6.49184        -0.081192     -0.025257      0.007876
O	      6.41764      4.36075      8.65626         0.010915     -0.008749     -0.007330
O	      8.57688      6.44902      8.48911         0.020800     -0.034351      0.123405
O	      2.14451      6.62403      6.42426        -0.030915      0.013135      0.025844
O	      4.22952      8.63478      6.47054        -0.022667      0.051096     -0.010564
O	      4.31097      6.51418      8.68955         0.035958      0.014465      0.106702
O	      6.36994      8.55268      8.79994         0.006357     -0.013489      0.218617
O	      6.34920      6.44995     10.73248        -0.062484      0.061861     -0.005278
O	      8.50641      8.67809     10.83687        -0.067799      0.100945      0.026729
