# total energy = -264.52935324 eV
 
CRYSTAL
PRIMVEC
0.016930 6.505808 6.413431 
6.534615 0.023324 6.406920 
4.357181 4.333406 0.014871 
PRIMCOORD
36 1
Li	      4.27510      4.26390      0.03830        -0.109355     -0.038937     -0.029077
Li	      2.25103      8.69441      6.42178        -0.005856      0.002714     -0.014278
Li	      6.58172      4.34498      2.19981         0.040100      0.012274      0.035182
Li	      4.32748      2.17176      2.21213         0.043875     -0.033870      0.004924
Li	      8.58264      4.50983      4.35401        -0.013076     -0.002994      0.025041
Li	      2.41525      2.07989      4.28119         0.041584     -0.040725     -0.033427
Li	      4.37185      4.20843      4.34625         0.013921     -0.016637      0.031266
Li	      4.31912      2.14124      6.24146        -0.020962     -0.039488      0.045798
Li	      6.54312      8.67237      6.43487         0.007110      0.008221      0.014828
Sc	      6.39089      2.28590      4.36126         0.077751      0.057011      0.021667
Sc	      0.07011      2.10100      2.06151         0.055752     -0.033872     -0.003815
Sc	      2.14399      6.46058      4.40891        -0.057603      0.017393     -0.002926
Sc	      4.30707      4.40641      8.49269         0.009931     -0.044214      0.056613
Sc	      6.51317      6.56463      8.51166         0.054009     -0.001406      0.036118
Ti	      2.33409      4.19144      2.08793         0.176678     -0.144316     -0.119269
Ti	      4.37527      6.61585      6.34349        -0.061404      0.147514     -0.022257
V	      6.53453      4.38712      6.35939         0.007450     -0.057601      0.068711
V	      4.34448      8.66310      4.35138        -0.037841      0.073591     -0.077886
O	      2.12497      2.31962      2.15307         0.022382      0.170838     -0.009208
O	      4.20139      4.38225      2.10961        -0.257856     -0.015250      0.008321
O	      4.41847      2.17033      4.28738        -0.020154     -0.004980     -0.045959
O	      6.55231      4.30484      4.26229         0.019902      0.002725     -0.131056
O	      6.55647      2.21431      6.45389        -0.004814     -0.037185      0.007849
O	      8.67091      4.38324      6.62436         0.043397     -0.004166      0.207104
O	      2.12043      4.40798      4.08346         0.007056      0.003097     -0.053564
O	      4.28919      6.52776      4.32334        -0.023207     -0.027554      0.116365
O	      4.38294      4.50820      6.44180        -0.045866      0.075331     -0.036635
O	      6.41251      6.52994      6.43820        -0.115411      0.086029     -0.046412
O	      6.56865      4.35358      8.56208        -0.017175     -0.002727     -0.017895
O	      8.74079      6.52189      8.58437        -0.005009     -0.033392      0.001419
O	      2.40051      6.49949      6.40666         0.174042      0.012539      0.049583
O	      4.38998      8.53640      6.43788         0.015180     -0.203481      0.090296
O	      4.45584      6.46415      8.41572        -0.009104      0.048646     -0.116366
O	      6.63571      8.59986      8.60609         0.007954      0.024203     -0.065762
O	      6.58951      6.51530     10.65720         0.016831      0.061404      0.016957
O	      8.70648      8.60881     10.63839        -0.030210     -0.020733     -0.012249
