# total energy = -263.79214322 eV
 
CRYSTAL
PRIMVEC
-0.018070 6.434572 6.451517 
6.327091 0.037314 6.396151 
4.265619 4.300725 -0.022891 
PRIMCOORD
36 1
Li	      6.39936      4.30831      2.14319        -0.023837     -0.048353      0.033177
Li	      4.22965      8.57331      8.58363         0.107449     -0.000253      0.015785
Li	      4.18033      6.46465     10.62359        -0.014134     -0.001829     -0.126500
Li	      2.18682      4.31290      2.15790         0.061080     -0.020896      0.033949
Li	      4.17941      4.31412      4.28218         0.013110      0.007807      0.038212
Li	      8.40970      6.49429      6.44071        -0.025040      0.067464      0.002051
Li	      2.12417      6.42227      4.27342        -0.029221      0.025949      0.019845
Li	      4.24606      6.42021      6.44896         0.039672      0.002391      0.000567
Li	      6.33737      6.51082      8.52061        -0.065627      0.057937      0.007721
Sc	      2.18240      8.54685      6.52955         0.119518     -0.153325     -0.012513
Sc	      6.27131      2.16175      4.20774        -0.146249      0.021850     -0.102091
Sc	      4.15555      6.33606      2.18667        -0.084221     -0.034829      0.076405
Sc	      6.38946      4.42279      6.40359        -0.039070      0.083378     -0.045189
Sc	      6.34587      4.40074     10.65831         0.091694     -0.027101      0.025713
Ti	      4.29315     10.69445      6.47722         0.097581     -0.031283      0.122339
Ti	      2.23273      2.20105      4.25049         0.126586      0.140903      0.117669
Ti	      4.06255      4.39278      8.42392        -0.159574      0.425407     -0.237369
Co	      2.17699      4.32094      6.52622         0.027018     -0.028065     -0.001281
O	      2.07565      2.11980      2.20353         0.058521     -0.006857      0.096250
O	      4.23392      4.30846      2.01816        -0.033308      0.044934     -0.150895
O	      4.16098      2.16747      4.23102        -0.227759     -0.022889     -0.020772
O	      6.34278      4.36185      4.32509         0.070532      0.079423     -0.043473
O	      6.38503      2.17209      6.40632        -0.080400     -0.076764      0.016675
O	      8.53262      4.26307      6.42824         0.047929      0.043381      0.055294
O	      2.10046      4.17661      4.23364         0.010491     -0.168079     -0.010928
O	      4.40097      6.52349      4.22142        -0.018435     -0.042233     -0.001472
O	      4.30306      4.31523      6.49197        -0.053720     -0.003675      0.179713
O	      6.41103      6.42075      6.22610         0.009757      0.015524     -0.090480
O	      6.22520      4.28850      8.54628        -0.022834      0.003133     -0.016869
O	      8.46931      6.62435      8.55197         0.027783      0.022380     -0.029221
O	      1.98403      6.50640      6.44319        -0.137145     -0.066219     -0.009225
O	      4.20026      8.63743      6.38916         0.093003      0.115413      0.030012
O	      4.20584      6.25137      8.54076        -0.051815     -0.420966     -0.012646
O	      6.36993      8.58417      8.63624         0.191251      0.009894     -0.034196
O	      6.30240      6.48460     10.79316        -0.006166     -0.020391      0.087193
O	      8.43209      8.61265     10.69248         0.025580      0.006841     -0.013450
