# total energy = -265.72771318 eV
 
CRYSTAL
PRIMVEC
0.024462 6.452052 6.427982 
6.349752 0.060678 6.391700 
4.263405 4.307356 0.010235 
PRIMCOORD
36 1
Li	     10.60828     10.77554     12.76619        -0.016853      0.026838      0.008108
Li	      8.51980      8.72289     12.74214        -0.024978      0.094506      0.010421
Li	      4.34603      6.45154     10.70311        -0.010736     -0.000566     -0.008721
Li	      8.43429      4.51625      8.43756         0.033818      0.037857     -0.066297
Li	      8.47710      6.46372      6.56403         0.018969     -0.052707      0.022415
Li	      8.45822      6.52043     10.66726         0.020788      0.023035     -0.003577
Li	      4.21521      6.46478      6.46046        -0.020158      0.020861      0.031738
Li	      4.26914      4.30884      8.49825        -0.006775      0.000299      0.042855
Li	      6.49980      6.44382      8.55568         0.024392      0.058479      0.004526
Sc	      2.21332      6.46466      8.45659        -0.051218      0.035925      0.057292
Sc	      4.23642      8.59209      8.45620        -0.035007      0.026815      0.040907
Sc	      6.48994      8.51146     10.77146        -0.004395      0.020910     -0.010214
Sc	      6.21225      2.26910      8.44162         0.082797     -0.055996     -0.034480
Sc	      4.16422      4.34393      4.32995         0.034250     -0.008877     -0.133759
Ti	      6.46605      4.44083      6.40629         0.505657     -0.052667     -0.036706
Ti	      6.29182      4.44758     10.62870        -0.155898      0.072314     -0.002896
Ti	      6.38956      6.37764      4.42076         0.012703     -0.039080     -0.022654
Cr	      6.42771      8.62501      6.46694        -0.016702      0.002390     -0.008189
O	      2.13850      2.12276      2.23466        -0.018100      0.024079     -0.007310
O	      4.28306      4.33138      2.20265        -0.008858     -0.042504     -0.018971
O	      4.22937      2.20612      4.19285        -0.092082     -0.052613      0.065872
O	      6.33419      4.26078      4.29344         0.040380      0.079733     -0.021792
O	      6.37205      2.26680      6.36841        -0.024088     -0.027894      0.003485
O	      8.30817      4.37447      6.42087        -0.445173      0.015635     -0.060013
O	      2.06994      4.24560      4.41925        -0.072216      0.038778      0.013802
O	      4.34907      6.48986      4.23326         0.018823      0.084980      0.120158
O	      4.27591      4.35866      6.38107        -0.078194     -0.032845      0.038148
O	      6.40429      6.56844      6.37647        -0.023920      0.044820      0.052169
O	      6.36922      4.39535      8.61680         0.014548      0.012677      0.085535
O	      8.54856      6.50639      8.56738        -0.005618      0.066088      0.023934
O	      2.15156      6.31931      6.45717        -0.008161     -0.076289     -0.034010
O	      4.36406      8.63180      6.34551         0.047586     -0.050836     -0.032074
O	      4.20763      6.59196      8.53886         0.052182     -0.082538      0.016626
O	      6.36903      8.65852      8.54014         0.030008     -0.048036     -0.093591
O	      6.36278      6.42988     10.70676         0.044171     -0.166719     -0.036165
O	      8.61158      8.64786     10.72371         0.138055      0.003150     -0.006572
