# total energy = -91.53115746 eV
 
CRYSTAL
PRIMVEC
0.000200 2.001624 1.999927 
6.004421 6.064224 -4.058401 
-4.010371 2.029704 -2.028337 
PRIMCOORD
16 1
Li	     -1.94877      3.92240     -1.97821        -0.270653      0.124162     -0.228140
Li	      1.97176      5.81521     -3.87013         0.145266      0.316571     -0.503708
Li	     -0.00586      3.90659     -0.02692         0.030462     -0.149436      0.239073
Li	      3.84803      5.94258     -2.05127         0.455652      0.022749      0.150190
Mn	     -3.88474      1.96929     -1.96472        -3.236973     -1.336874      0.354163
Mn	     -0.00998      5.87428     -1.98948        -1.543734      1.088649      0.060720
Ni	      3.87253      7.83433     -3.94469         1.222929      0.605154      0.004271
Ni	      1.94679      3.92238     -1.97859         1.073980     -0.929880     -0.111838
O	      4.00413      5.89342     -3.94376         1.072892     -0.320549     -0.280972
O	      0.00491      5.76874     -3.82527        -0.024323      0.734579     -1.405406
O	      1.92517      7.95715     -4.06547         0.109209      1.405615     -0.959877
O	     -2.07283      3.88051      0.00301         0.289094     -0.014679      0.281220
O	     -0.00517      4.02180     -2.07716        -1.155347     -1.321258      0.671241
O	      1.81562      5.86344     -1.97898         1.348860      0.959956     -0.213355
O	     -0.00028      1.85293      0.09055         0.214010     -0.518372      0.620132
O	      2.06851      3.93572     -0.05037         0.268677     -0.666386      1.322285
