# total energy = -267.02241723 eV
 
CRYSTAL
PRIMVEC
0.012903 6.477169 6.484693 
6.418025 0.018664 6.479254 
4.279282 4.315029 0.011981 
PRIMCOORD
36 1
Li	      4.43127      8.48711      8.67611         0.026349     -0.044595     -0.003543
Li	      6.41303      8.52873     10.63527        -0.025849     -0.004161     -0.091502
Li	      4.27841      4.28018      4.38019         0.026558     -0.020936      0.002256
Li	      4.25280      2.25084      6.45354        -0.029150     -0.002124      0.011941
Li	      6.38553      4.37694     10.78555         0.021360      0.011477     -0.021876
Li	      8.49796      6.58350     10.75513        -0.064432      0.024702     -0.045013
Li	      4.28141      6.48906      6.56077         0.027832     -0.018750      0.077529
Li	      8.52925      8.66405      8.69625        -0.013876      0.033450      0.004763
Li	      6.30548      6.60630      8.80803        -0.050124      0.002292      0.032547
Sc	      6.43559      6.52487     12.82907        -0.025286     -0.011883     -0.060039
Sc	      6.53594     10.73137      8.71863         0.007136     -0.067577      0.037263
Sc	      2.14736      4.33590      2.27909         0.046003      0.100045      0.012590
Sc	      6.27110      4.35864      6.46277        -0.023827      0.075345     -0.034910
Sc	      6.47395      8.56247      6.49599         0.028712      0.011954      0.020092
Ti	      8.63980      8.63939     12.83545         0.112959     -0.017607     -0.419880
Ti	     10.60528      6.53165      8.75657        -0.287670     -0.039255      0.360022
Ti	      2.24441      2.16786      4.32405         0.170246      0.025426      0.042301
V	      4.30442      6.48139     10.80825         0.003759     -0.041511      0.001941
O	      2.07711      2.16593      2.13075         0.001300      0.005648     -0.073336
O	      4.27012      4.48049      2.10568         0.013758      0.091496      0.005397
O	      4.14089      2.14531      4.27757        -0.230350      0.033869      0.002745
O	      6.40095      4.35239      4.34386        -0.047528      0.032482      0.024785
O	      6.50814      2.19907      6.61550         0.084114      0.013712      0.060456
O	      8.55066      4.28348      6.53993        -0.016923     -0.074350      0.010793
O	      2.15225      4.24849      4.33286         0.028943     -0.054934     -0.011062
O	      4.43855      6.48625      4.14534         0.050601      0.007380     -0.336146
O	      4.26634      4.29473      6.45420         0.028611      0.017765      0.007185
O	      6.40328      6.46594      6.39745         0.004111     -0.003879     -0.113206
O	      6.47331      4.20593      8.58254        -0.023460     -0.126534     -0.000642
O	      8.71225      6.43576      8.68989         0.266197      0.031184      0.012976
O	      2.14299      6.50215      6.53103         0.024497      0.101012     -0.000075
O	      4.27134      8.70149      6.50108        -0.142183     -0.064499      0.003201
O	      4.25516      6.47605      8.70002        -0.046117     -0.018739     -0.056308
O	      6.42382      8.69907      8.57496         0.004978     -0.005439     -0.017705
O	      6.41796      6.52789     10.82981         0.043247     -0.002272      0.073448
O	      8.58081      8.63614     10.96008         0.005502     -0.000194      0.481010
