# total energy = -269.11131362 eV
 
CRYSTAL
PRIMVEC
0.045742 6.478804 6.357370 
6.412447 0.050444 6.352866 
4.289279 4.330584 0.019284 
PRIMCOORD
36 1
Li	      4.36270      2.23336      2.25974        -0.005846      0.064673     -0.058611
Li	      4.28885      0.14954      4.22950        -0.011682      0.002822     -0.012916
Li	      6.19802      2.30061      4.22840         0.023382      0.008840     -0.020101
Li	      4.27437      6.45979      2.19123        -0.012551      0.004351      0.024127
Li	      4.30094      4.22341      4.32496        -0.040380      0.005677     -0.005039
Li	      4.30177      2.28378      6.22545        -0.019617      0.011498      0.059025
Li	      2.26488      6.40163      4.28152         0.048446      0.006039      0.007654
Li	      2.21166      4.40932      6.28495        -0.007059      0.040606      0.016371
Li	      4.29057      6.41480      6.30722         0.006227     -0.059454     -0.023611
Sc	      6.46255      6.60294     12.61460         0.042223      0.021412      0.042290
Sc	      2.22156      4.38164      2.17999         0.049354     -0.024899      0.077696
Sc	      2.26011      2.13628      4.28246        -0.080551      0.074708     -0.081685
Sc	      8.56820      8.64008      8.53630        -0.017409     -0.080507      0.018450
Sc	      6.35489      6.62531      8.45647         0.031181      0.037145     -0.000298
Ti	      2.24474      8.57364      6.36789         0.040248     -0.070901      0.002967
Ti	      2.14465      0.09318      2.12481        -0.010601      0.006527     -0.020575
Ti	      6.40806      4.30606      6.24813        -0.173995     -0.006904     -0.017161
Ti	      4.26242      8.54402      4.33944         0.073223     -0.307082      0.034081
O	      2.17079      2.20452      2.10443        -0.003445     -0.045575     -0.066757
O	      4.35103      4.40675      2.07701         0.097469     -0.047854     -0.028057
O	      4.23906      2.17512      4.24856         0.053217      0.023311     -0.022153
O	      6.40399      4.32837      4.23828         0.031530     -0.055175      0.035430
O	      6.53045      2.23798      6.34417         0.019035      0.022756     -0.004933
O	      8.53456      4.29168      6.37876        -0.051666     -0.033218     -0.017261
O	      2.09115      4.29619      4.25215        -0.060983     -0.000112     -0.030824
O	      4.34939      6.64800      4.24925         0.010242      0.321180      0.035210
O	      4.47955      4.32084      6.40074         0.142981     -0.004717     -0.024690
O	      6.44688      6.38127      6.39553        -0.005027     -0.041412      0.043151
O	      6.44737      4.40553      8.47125         0.021038     -0.014538      0.003051
O	      8.49590      6.52674      8.50887        -0.009489      0.005272     -0.017745
O	      2.15683      6.51718      6.39590        -0.023320      0.112053      0.097165
O	      4.28314      8.72487      6.33629        -0.097391      0.011424     -0.131435
O	      4.22385      6.45792      8.47095        -0.070181     -0.000638      0.008652
O	      6.48635      8.71070      8.46158        -0.007298      0.018570      0.037017
O	      6.39200      6.35602     10.56616        -0.006561     -0.039339     -0.008916
O	      8.64665      8.63233     10.65638         0.025257      0.033461      0.050430
