# total energy = -237.05754729 eV
 
CRYSTAL
PRIMVEC
-0.046097 6.258566 6.293871 
6.668210 -0.011381 6.259615 
4.450986 4.156011 -0.013994 
PRIMCOORD
36 1
Li	     10.99969      4.24046      6.23429         0.044519     -0.022189      0.025501
Li	      6.73641      4.10718      2.20978         0.089407      0.038586     -0.062677
Li	      8.81402      4.10824      4.19380        -0.034648     -0.010363     -0.035207
Li	      4.44425      6.16426      2.09595        -0.003050     -0.012226      0.042078
Li	      6.39392      6.21902      4.10992        -0.021014      0.022544     -0.023180
Li	      4.59571      4.26377      4.11610         0.010664     -0.000264      0.013038
Li	      2.18355      6.30671      4.26065        -0.008864      0.001817     -0.037840
Li	      8.72745      8.33439      8.40075        -0.026696     -0.016851      0.047279
Li	      6.58290      6.28717      8.37453        -0.027418     -0.007135      0.014431
Sc	      2.18691      8.23685      6.31741        -0.053948      0.042301      0.094332
Sc	      4.50330      2.06914      2.24554        -0.015266     -0.039432     -0.200062
Sc	      2.30623      4.26188      2.19478        -0.000623     -0.051196     -0.011583
Sc	      6.56259      4.13860      6.27906        -0.014293      0.149753     -0.072907
Sc	      6.53033      4.25407     10.35905         0.184349      0.094595      0.023931
Sc	      2.25151      4.14845      6.27030        -0.005009      0.030310      0.052634
Cu	      4.48723      2.02754      6.19851        -0.146017      0.006632     -0.013146
Ni	      6.69355      8.27723     10.43723         0.071690     -0.040570     -0.024998
Ni	      4.40363      6.28164      6.25210        -0.042527     -0.080077     -0.027890
O	      2.35662      2.12389      2.08995         0.064216      0.011400      0.009911
O	      4.35551      4.14110      2.14571        -0.089282     -0.002251     -0.014826
O	      4.65452      1.98038      4.30240        -0.204451      0.014945      0.102906
O	      6.70702      3.94819      4.20355        -0.004710      0.166520      0.058089
O	      6.85612      2.06523      6.21750         0.230968     -0.068590     -0.121495
O	      8.79177      4.25581      6.28951        -0.051950     -0.048105     -0.062506
O	      2.02014      4.23311      4.21560        -0.028022     -0.003182      0.070457
O	      4.37703      6.30695      4.32716        -0.007595     -0.023248     -0.159166
O	      4.39706      3.94547      6.18922        -0.053877      0.039916     -0.005120
O	      6.33883      6.22072      6.18212         0.099890     -0.115470      0.038847
O	      6.77030      4.13115      8.35225         0.054429      0.007561     -0.077594
O	      8.89677      6.27160      8.04536        -0.017914      0.045187      0.089790
O	      2.44068      6.22548      6.29684        -0.083389     -0.029777     -0.021249
O	      4.42181      8.39622      6.29540         0.006118      0.116492      0.004566
O	      4.42884      6.24900      8.14782         0.021154      0.005071      0.259714
O	      6.57412      8.31688      8.35497        -0.030207      0.007466      0.080555
O	      6.68557      6.36684     10.44508         0.060304     -0.298204     -0.004514
O	      8.89427      8.33974     10.48621         0.033060      0.068035     -0.052100
