# total energy = -237.01449155 eV
 
CRYSTAL
PRIMVEC
0.038703 6.500986 6.457477 
6.359663 0.097796 6.398928 
4.302267 4.357667 0.002403 
PRIMCOORD
36 1
Li	      2.18953      8.54546      6.34196         0.065111     -0.064912      0.080393
Li	      6.54141      8.68869     10.75481         0.006654      0.005375     -0.032673
Li	      6.47601      6.50861      4.45489        -0.023819     -0.009363      0.003906
Li	      6.38656      4.52621      6.34759         0.035306      0.039360      0.007823
Li	      2.13009      6.55401      4.48855         0.030670     -0.059622      0.091369
Li	      6.50090      8.66406      6.49873         0.005553     -0.048454      0.031482
Li	      4.29914      6.53232      6.41114        -0.103070      0.058558     -0.009949
Li	      8.50350      8.71964      8.55071         0.010422     -0.015461      0.012564
Li	      6.45821      6.64906      8.50108         0.030198      0.022594      0.011824
Sc	      2.23730      6.43603      8.52001         0.086058      0.058405     -0.036857
Sc	      4.40005      8.62494      8.55236        -0.051230     -0.069408     -0.068579
Sc	      6.34240      2.32200      8.50830         0.035592      0.127228      0.016990
Sc	      8.46236      4.46211      8.52270        -0.142851     -0.050395      0.044595
Sc	      4.30615      4.40031      4.44079        -0.029962      0.052860      0.036831
Sc	      4.29633      8.71102      4.41842        -0.007568     -0.002432     -0.041837
Cu	      4.21799      2.24871      6.39091         0.017669      0.032932     -0.010201
Cu	      8.51100      4.41436      4.29565        -0.030077     -0.005343     -0.076121
Ni	      6.42792      6.60942     12.76566         0.024616     -0.018229      0.067602
O	      6.63469      6.57380      6.42841        -0.029192      0.074641      0.038391
O	      2.12596      2.22427      2.02942         0.000565      0.014886     -0.024754
O	      4.29022      4.35533      2.19972        -0.028041     -0.000238     -0.031625
O	      4.22749      2.23187      4.27055         0.009243      0.048333     -0.053183
O	      6.40736      4.43720      4.22338        -0.090465      0.033149     -0.014574
O	      6.16681      2.16689      6.42460         0.000325      0.088907     -0.002802
O	      8.56812      4.60181      6.32308        -0.116056     -0.027014      0.051438
O	      2.16501      4.42113      4.17675         0.050435     -0.019158     -0.012853
O	      4.27685      6.52489      4.27217         0.018788     -0.060228     -0.030249
O	      4.28968      4.25642      6.43600        -0.002860      0.020212     -0.023091
O	      6.44680      4.33278      8.63636        -0.009448     -0.004905     -0.016800
O	      8.56902      6.54736      8.43004        -0.016835      0.014059      0.129776
O	      2.09803      6.56420      6.48884         0.136865     -0.064500      0.052995
O	      4.34726      8.72783      6.48402         0.008929     -0.103663      0.014051
O	      4.28127      6.58559      8.67347         0.003819     -0.009746     -0.116926
O	      6.39230      8.78479      8.59382         0.014367      0.011765     -0.011495
O	      6.28081      6.53916     10.74576         0.095137      0.036933     -0.069974
O	      8.58539      8.90460     10.77402        -0.004847     -0.107127     -0.007487
