# total energy = -236.82047370 eV
 
CRYSTAL
PRIMVEC
0.021319 6.409307 6.269755 
6.530450 -0.052161 6.342921 
4.339852 4.308148 -0.020521 
PRIMCOORD
36 1
Li	      6.60441      0.08948      6.35219        -0.005090      0.003102      0.039144
Li	      8.50858      2.03470      6.31086         0.002478     -0.041767      0.055952
Li	      6.39988      4.34287      2.27198        -0.059783     -0.010805     -0.020170
Li	      4.46377      8.51743      8.48633         0.047104      0.035650      0.015050
Li	      6.67489      8.65644     10.39825        -0.114914      0.115916     -0.028214
Li	      6.62415      6.22361      4.09126         0.031131     -0.050883      0.016898
Li	      4.44554      4.33163      4.09326         0.052043     -0.008596      0.038312
Li	      6.59083      4.17311      6.23214         0.000533      0.015790     -0.051855
Li	      8.62427      8.60851      8.46649        -0.047968     -0.001498     -0.050035
Sc	      2.25151      4.15602      2.01966         0.107319     -0.112693      0.035105
Sc	      4.47597      2.15249      6.20998        -0.062033      0.062849     -0.215829
Sc	     10.76258      8.54049     10.52696        -0.007995     -0.126094      0.137720
Sc	      6.49619      8.62217      6.29759        -0.011831     -0.088468      0.044259
Sc	      4.35905      6.35054      6.34084         0.097010      0.045189     -0.102399
Sc	      6.53150      6.47352      8.47544         0.003167      0.101782     -0.095525
Cu	      8.54268      4.28835      4.23001         0.434624     -0.320681     -0.081329
Cu	      0.05014      2.09225      2.07637         0.026402      0.036522      0.056792
Cu	      8.70991      6.39201     10.50903        -0.243049      0.118098      0.033393
O	      6.60438      4.24664      4.23322        -0.067837     -0.032429     -0.025055
O	      8.69769      8.53707     10.49971        -0.025365      0.207763      0.072266
O	      2.02521      2.14603      2.10536         0.116173     -0.028498     -0.042955
O	      4.30796      4.39246      2.08759        -0.024515     -0.079216     -0.000420
O	      4.33787      1.97049      4.21116        -0.001792      0.049329     -0.067249
O	      6.48756      2.12753      6.47425         0.016657     -0.007455     -0.148584
O	      8.70186      4.33399      6.24210         0.009743     -0.063525      0.028788
O	      2.08598      4.35014      4.14910         0.005917     -0.058967     -0.038480
O	      4.22356      6.46829      4.13814         0.162529     -0.052639     -0.025208
O	      4.27961      4.26118      6.22636         0.017676     -0.002218      0.031094
O	      6.52125      6.48022      6.35462         0.009651     -0.055906      0.039428
O	      6.62431      4.26040      8.46460        -0.054936      0.054497     -0.089435
O	      8.71174      6.35160      8.42183         0.009864      0.045120      0.166252
O	      2.26660      6.38658      6.15864        -0.111878      0.136195      0.064028
O	      4.43445      8.43637      6.23349        -0.036336      0.040277      0.033457
O	      4.45139      6.35262      8.43766        -0.031590     -0.013799      0.107201
O	      6.54532      8.49427      8.33692         0.026030     -0.060982      0.011457
O	      6.64549      6.33455     10.53776        -0.269139      0.149038      0.056147
