# total energy = -235.67954930 eV
 
CRYSTAL
PRIMVEC
-0.049500 6.492021 6.294743 
6.464791 -0.065021 6.309650 
4.267204 4.295284 -0.000288 
PRIMCOORD
36 1
Li	      2.12064      6.45597      8.30851         0.017855     -0.032476     -0.041389
Li	      6.46350      8.57284     10.42672         0.003518     -0.049801     -0.004448
Li	      4.21987      6.39113      2.11782        -0.091441     -0.005561      0.027134
Li	      2.15658      4.34378      2.12368        -0.003896      0.060421      0.003900
Li	      4.18168      4.39392      4.15209        -0.078623      0.032868     -0.008318
Li	      8.62644      6.37122     10.40203         0.025441     -0.023256     -0.081991
Li	      2.20425      4.36867      6.30759         0.021239     -0.002767     -0.029083
Li	      8.40069      8.58398      8.34826        -0.039890     -0.060340     -0.048268
Li	      6.44585      6.45050      8.40266         0.066722      0.007007      0.025644
Sc	      0.09720      6.58256      6.30483        -0.136997     -0.023947     -0.013149
Sc	      4.35001      8.64873      8.39145         0.098980      0.052127      0.024360
Sc	      8.47467     10.65686     10.43401         0.155363      0.028353      0.079295
Sc	      6.31990      6.42940      4.15713        -0.049372      0.120998      0.043853
Sc	      4.30098      2.24256      6.39230        -0.024331      0.000821      0.257213
Sc	      6.44599      4.23602     10.37822         0.094348     -0.006534     -0.039158
Ni	      2.12794      2.14926      0.04967        -0.016100      0.151998      0.020740
Ni	      6.39408      4.27229      6.39812         0.298924     -0.066734     -0.222922
Ni	      4.21850      6.38878      6.33481         0.073572      0.031206     -0.038004
O	      2.18490      2.12411      2.05223         0.014907     -0.041837     -0.000181
O	      4.31232      4.21864      2.06365         0.043676      0.012831     -0.067211
O	      4.20718      2.01917      4.21221        -0.010882     -0.022632     -0.055585
O	      6.44631      4.28234      4.41516        -0.162526     -0.011890      0.151697
O	      6.43750      2.11606      6.32987         0.014619     -0.106857     -0.004215
O	      8.55490      4.24124      6.31765         0.020800     -0.081758     -0.046502
O	      2.03651      4.20361      4.22142        -0.014427     -0.054745      0.025623
O	      4.26580      6.48870      4.24812         0.051864      0.018803     -0.052639
O	      4.38680      4.30177      6.31873        -0.192490     -0.071251      0.013605
O	      6.42847      6.34354      6.29733        -0.011422      0.061119     -0.073731
O	      6.41872      4.25572      8.31210        -0.078526      0.008634      0.074899
O	      8.55120      6.41837      8.39427         0.001966      0.024395     -0.146751
O	      2.13767      6.60923      6.29746        -0.038390     -0.004270     -0.015271
O	      4.18857      8.68009      6.27785         0.051731      0.019420     -0.011581
O	      4.23624      6.50066      8.39337        -0.047552      0.010465      0.112720
O	      6.37730      8.63208      8.38006        -0.020760      0.023514      0.002951
O	      6.31201      6.33974     10.54691        -0.015138      0.003335      0.065568
O	      8.55636      8.58899     10.64561        -0.022761     -0.001661      0.071195
