# total energy = -205.84884680 eV
 
CRYSTAL
PRIMVEC
-0.024920 6.268583 6.212791 
6.226123 -0.017413 6.205889 
4.161589 4.185543 -0.022892 
PRIMCOORD
36 1
Li	      6.21376      0.01593      6.19180        -0.053008     -0.026341      0.045416
Li	      8.23362      2.13892      6.17290         0.011581      0.020085      0.026808
Li	      4.15938      8.33644      8.26841         0.039233     -0.069244      0.056797
Li	      6.17762      2.13192      4.22634        -0.201695      0.172893      0.003860
Li	      4.18502      4.10503      4.15839         0.172119     -0.177149      0.063928
Li	      6.21435      4.14279      6.19462        -0.040558      0.066499     -0.076557
Li	      4.18266      6.23611      6.25982         0.002804     -0.066352      0.149603
Li	      4.07931      4.25217      8.25633        -0.080693      0.073884     -0.122266
Li	      6.15913      6.23908      8.23391        -0.095128      0.013015     -0.102111
Fe	      2.04152      6.23951      8.22723         0.331901     -0.099053      0.070564
Fe	      4.15312      6.24855     10.36032        -0.217132      0.175490     -0.198727
Fe	      6.19522      2.07589      8.16017         0.054712      0.008995     -0.077993
Fe	      6.24643      6.23818      4.16346         0.258149     -0.226677      0.108182
Fe	      8.25076      6.34834     10.37762         0.083423     -0.148075      0.147844
Fe	      6.24752      8.33520      6.22653         0.313611     -0.020888      0.357445
Co	     10.36322      8.35599     10.32710         0.419274      0.182210      0.506102
Cu	      2.13990      4.14873      1.98376        -0.025608     -0.081544     -0.204021
Ni	      8.29530      6.26293      6.19768        -0.016064      0.056933     -0.081026
O	      8.31767      4.18075      6.04199         0.049806     -0.131184      0.711327
O	      2.05260      2.10869      2.10214        -0.096294      0.004871      0.058227
O	      4.19361      4.25414      2.04653        -0.074196      0.031314      0.070202
O	      4.08920      1.98491      4.14943        -0.007884      0.240702     -0.055732
O	      6.25671      4.23720      4.03928        -0.215421     -0.002640     -0.001457
O	      6.16935      2.14869      6.26356         0.140500     -0.084152     -0.097388
O	      2.11465      4.18930      4.24467        -1.105362      0.069187     -0.546584
O	      4.14003      6.41041      4.07609        -0.053027      0.537210      0.034637
O	      3.95314      4.12315      6.23899         0.547964      0.067846     -0.131933
O	      6.21829      6.27561      6.14357        -0.153176     -0.061328     -0.089540
O	      6.33102      4.08711      8.43564        -0.106536      0.115364      0.244006
O	      8.34052      6.11783      8.35505         0.003807      0.088087      0.129381
O	      2.10216      6.25941      6.18653        -0.123786      0.116073     -0.188552
O	      4.34443      8.35273      6.03549        -0.793610     -0.034006     -0.762376
O	      4.05037      6.25842      8.41623        -0.070551     -0.042938     -0.395553
O	      6.15986      8.44495      8.12674        -0.051810     -0.026197      0.423642
O	      6.23336      6.12453     10.31760         0.079129     -0.664601     -0.008169
O	      8.29690      8.32367     10.34149         1.073526     -0.078287     -0.067987
