# total energy = -205.93220791 eV
 
CRYSTAL
PRIMVEC
-0.026438 6.279760 6.288481 
6.251277 -0.009339 6.271328 
4.150671 4.158305 0.010631 
PRIMCOORD
36 1
Li	      2.13699      8.26980      6.28919         0.206070     -0.175215      0.021214
Li	      2.09740      6.22973      8.31384         0.024464     -0.016367     -0.123105
Li	      4.17287      8.32436      8.30147         0.025188     -0.031007     -0.203001
Li	      4.09757      4.20291      4.19553        -0.056541      0.098616     -0.041019
Li	      4.17718      8.30352      4.25939         0.064966     -0.060670      0.094335
Li	      2.08863      6.22554      4.27928         0.060547     -0.081054      0.182658
Li	      2.03008      4.22423      6.28101        -0.122500      0.111113     -0.011016
Li	      4.07213      6.32780      6.28619        -0.201887      0.217941     -0.024352
Li	      6.19777      6.30832      8.37415        -0.046885      0.020881      0.010711
Fe	      4.25308     10.29093      6.30549        -0.183895      0.094082      0.058046
Fe	      4.18779      6.24355     10.39774        -0.016440      0.011654     -0.005881
Fe	      4.15277      6.20762      2.16832         0.037989     -0.029111      0.065499
Fe	      2.03928      2.19434      4.18717        -0.071325     -0.030751     -0.189202
Fe	      6.21395      4.20096      6.28999         0.125455     -0.146477      0.026224
Fe	      8.18261      8.40250      8.37389         0.189553      0.036041      0.078343
Co	      2.06396      4.16675      2.10927         0.067522     -0.087564      0.131544
Cu	      6.20508      8.35428     10.44539         0.074883      0.025369     -0.073484
Cu	      8.28312      6.26386      6.29540        -0.035115      0.063994     -0.044616
O	      1.93850      6.27073      6.30889         0.616183      0.122663      0.027378
O	      6.27089      8.32697      8.46645        -0.165646     -0.012946      0.017784
O	      2.02453      2.22128      2.17229         0.051952      0.030002     -0.119088
O	      3.99463      4.22612      2.03828        -0.041252     -0.047660      0.099181
O	      4.14450      2.03089      4.27918        -0.015660      0.012289      0.005424
O	      6.30077      4.15894      4.27112        -0.011111      0.060381     -0.033975
O	      6.23228      2.07800      6.27838        -0.311297      0.210512     -0.014617
O	      8.31666      4.12847      6.36657        -0.251458      0.295164     -0.033617
O	      2.08341      4.12771      4.02691        -0.003105      0.161169     -0.093116
O	      4.21285      6.24447      4.11731        -0.025260     -0.043556      0.075318
O	      4.23636      4.18392      6.38198        -0.118836     -0.290205     -0.053570
O	      6.24488      6.18920      6.19637         0.266245      0.198979      0.156988
O	      6.30721      4.10372      8.29711        -0.097606      0.065784      0.051390
O	      8.35924      6.17220      8.29034        -0.034300     -0.014976      0.087967
O	      4.14247      8.45959      6.28246        -0.093188     -0.674922     -0.051883
O	      4.15165      6.21482      8.44969         0.035011      0.013509     -0.027370
O	      6.14455      6.37451     10.55977         0.001572     -0.021951     -0.097837
O	      8.24372      8.41100     10.38887         0.055709     -0.085714      0.050744
