# total energy = -91.33632198 eV
 
CRYSTAL
PRIMVEC
-0.000080 2.085448 2.087809 
6.083200 0.038969 -2.125071 
-1.984519 6.320859 -4.235673 
PRIMCOORD
16 1
Li	      1.96949      2.16411     -0.07709        -0.014967      0.018716     -0.006590
Li	      0.14719      4.37110     -0.20670         0.038099      0.018283      0.007513
Li	      1.90393      4.21815     -2.12431        -0.023177     -0.007525     -0.004821
Li	      0.12270      6.19860     -2.02643         0.012652     -0.021379      0.026002
Mn	     -1.87890      6.31400     -4.22320         0.076224      0.015370     -0.012850
Mn	      3.98167      2.15058     -2.14491        -0.057145      0.020581     -0.022888
Ni	      4.12072      4.21852     -4.22166        -0.008037     -0.016252      0.033483
Ni	      1.93929      6.27132     -4.18290        -0.052367      0.072711     -0.082481
O	     -0.07001      4.18814     -2.10468         0.169887      0.015658     -0.018278
O	     -0.06109      1.94906      0.14363        -0.018634     -0.022961      0.027518
O	      4.04397      6.45253     -4.35955         0.073633      0.072060     -0.102031
O	      4.11519      4.12132     -2.02955        -0.000317     -0.088518      0.081812
O	     -0.06261      6.34391     -4.25160        -0.191391     -0.005999     -0.001783
O	      4.13174      2.18759     -0.09676         0.018390      0.047183     -0.035530
O	      2.16484      6.39777     -2.22461        -0.114058     -0.103912      0.116277
O	      2.18365      2.12713     -2.11922         0.091207     -0.014019     -0.005353
