# total energy = -92.00340842 eV
 
CRYSTAL
PRIMVEC
0.000201 2.011942 2.010236 
6.035371 6.095483 -4.079320 
-4.031043 2.040166 -2.038792 
PRIMCOORD
16 1
Li	     -1.96891      3.96294     -1.99866        -0.212948      0.104220     -0.186063
Li	      1.99214      5.87531     -3.91012         0.113872      0.258377     -0.402058
Li	     -0.00592      3.94697     -0.02720         0.028374     -0.121430      0.190419
Li	      3.88780      6.00400     -2.07247         0.371740      0.022887      0.110383
Mn	     -3.92489      1.98964     -1.98503        -2.722509     -1.170615      0.308482
Mn	     -0.01009      5.93500     -2.01005        -1.227633      0.857493      0.012579
Ni	      3.91256      7.91531     -3.98546         0.985453      0.472232     -0.000740
Ni	      1.96691      3.96293     -1.99904         0.848023     -0.737136     -0.061907
O	      4.04551      5.95433     -3.98452         0.962520     -0.235363     -0.215569
O	      0.00495      5.82836     -3.86480         0.012138      0.590832     -1.100941
O	      1.94506      8.03939     -4.10749         0.125592      1.220753     -0.811602
O	     -2.09426      3.92061      0.00304         0.171650      0.014437      0.210418
O	     -0.00522      4.06337     -2.09863        -0.943429     -1.036886      0.548445
O	      1.83438      5.92405     -1.99944         1.058797      0.779366     -0.200083
O	     -0.00029      1.87208      0.09149         0.200418     -0.441827      0.520349
O	      2.08989      3.97640     -0.05089         0.227941     -0.577340      1.077888
