# total energy = -204.60401761 eV
 
CRYSTAL
PRIMVEC
-0.004330 6.237144 6.219115 
6.244027 0.015272 6.199491 
4.175802 4.158373 -0.003134 
PRIMCOORD
36 1
Li	      6.24978      6.20850     12.31079         0.026783     -0.050004     -0.083050
Li	      4.23106      8.37462      8.19198         0.050036      0.019933      0.008714
Li	      8.35772      4.19430      4.22140         0.052303     -0.063731     -0.040171
Li	      6.25433      8.26989     10.40836        -0.015557     -0.054821     -0.052609
Li	      4.19655      4.12242      4.15226         0.032937      0.054330     -0.057179
Li	      6.24615      4.14284      6.14709        -0.016266     -0.002268     -0.009840
Li	      0.00404      4.21660      4.20510         0.009523      0.044684     -0.049123
Li	      8.19876      6.25923     10.47695        -0.087990      0.004193     -0.091173
Li	      2.02243      4.20734      6.18396        -0.034418      0.038946     -0.004809
Fe	      6.26215      2.07148      8.22082        -0.077887      0.073022      0.350542
Fe	      2.14969      4.12315      2.05087        -0.079408      0.024260      0.333957
Fe	      6.32771      6.21464      4.19758        -0.329934      0.126406     -0.175066
Fe	      4.09887      6.30411      6.13495         0.115956     -0.120376      0.092860
Fe	      8.29769      8.35487      8.37452         0.071414      0.019306      0.162074
Fe	      6.19513      6.28894      8.42050        -0.043820      0.036036     -0.182418
Co	      4.15040      2.10568      6.20535         0.312445      0.059462     -0.769137
Ni	      8.33666      8.34292     12.28050        -0.098119      0.043206     -0.096653
Ni	      6.22137     10.36642      8.26827         0.011435     -0.094251      0.048676
O	      2.03267      2.10578      1.99725         0.001856     -0.008725      0.006375
O	      4.13499      4.22980      2.07028         0.047285      0.001184     -0.084087
O	      4.04826      2.10073      4.30339         0.131786      0.013471     -0.661343
O	      6.28870      4.36589      4.06995         0.077184     -0.061297      0.146592
O	      6.12973      2.11548      6.25616         0.750689      0.047322     -0.174256
O	      8.32836      4.27322      6.29995        -0.068136     -0.222672     -0.288609
O	      2.10910      3.97403      4.02166         0.078164     -0.049996      0.227994
O	      4.33607      6.19686      4.14759         0.043127     -0.044083     -0.080461
O	      4.16077      4.09576      6.38670        -0.000487      0.198391     -0.399009
O	      6.33381      6.25062      6.24239        -0.892883     -0.000444      0.077325
O	      6.24405      4.15922      8.29691         0.094894     -0.104102     -0.082552
O	      8.34324      6.24153      8.17500         0.020209     -0.173701      1.183233
O	      2.14478      6.26144      6.21836        -0.046142     -0.055924     -0.111016
O	      4.11566      8.21718      6.19360         0.060810      0.173301     -0.018070
O	      4.19464      6.18880      8.18143         0.028311      0.125253      0.019234
O	      6.31140      8.29157      8.31875        -0.182192      0.031150     -0.068841
O	      6.24905      6.24036     10.24532        -0.023303     -0.015989      0.407386
O	      8.32069      8.32839     10.24184        -0.020605     -0.011470      0.514510
