# total energy = -207.76182093 eV
 
CRYSTAL
PRIMVEC
-0.026169 6.420849 6.109110 
6.230624 -0.034876 6.117930 
4.144268 4.276845 -0.013748 
PRIMCOORD
36 1
Li	      6.18128      4.29654      2.02376         0.088793     -0.241572      0.045554
Li	      4.14668      8.50572      8.12314         0.181330     -0.118348      0.114953
Li	      8.27553      4.30307      8.14115         0.019060      0.132236      0.028002
Li	      4.11803      4.24346      4.07062         0.045564     -0.007036      0.055668
Li	      8.27599      6.44339      6.15015        -0.141407      0.140420      0.016004
Li	      6.26182      4.23701      6.16095        -0.108112      0.076436     -0.041865
Li	      2.06169      6.34871      4.03355        -0.017178     -0.136867     -0.025298
Li	      8.32811      8.42888      8.11902        -0.105485      0.035854     -0.164214
Li	      6.26447      6.43795      8.12144        -0.066251      0.169659     -0.016085
Fe	      6.23168      0.01183      6.12706         0.208601     -0.060559     -0.040957
Fe	      4.13891      6.42998     10.08886        -0.079405      0.256638     -0.521102
Fe	      6.21004      2.20029      3.98914        -0.227332      0.135478     -1.019561
Fe	     10.27751      6.38568      8.19133        -0.391873     -0.203967      0.165963
Fe	      6.22445      6.39529      4.07190         0.160062     -0.062923      0.472166
Fe	      4.11882      6.24672      6.19728         0.078369     -0.162717      0.115273
Co	      2.08252      2.17678      0.03201        -0.003057      0.237310      0.179085
Co	      6.24269      8.51884      6.19814         0.182489     -0.204326     -0.873612
Cu	      6.19680      4.23885     10.14921         0.206336     -0.003012     -0.096279
O	      6.20979      3.99609      8.22610         0.103556      0.205783      0.060509
O	      1.88660      2.13759      2.09765         0.334310      0.079498     -1.257830
O	      4.11554      4.49590      1.94041        -0.033002     -0.149425      0.129921
O	      4.12295      2.06708      4.02741         0.085075      0.135336      0.072617
O	      6.30551      4.22675      4.06189        -0.178466      0.112922      0.110723
O	      6.27987      2.07390      6.04640         0.404642      0.058562      0.116125
O	      8.38694      4.22774      5.99678        -0.171925     -0.606952      0.456293
O	      1.96640      4.13848      4.23499         0.138855      0.122081      0.496722
O	      4.21409      6.27035      4.16741        -0.108367      0.093116     -0.424933
O	      4.07329      4.30257      6.13789        -0.918349     -0.246506      0.041036
O	      6.13555      6.42418      6.08731         0.334278      0.726196      0.169958
O	      8.45786      6.36080      8.17634        -0.047976     -0.027052     -0.017710
O	      2.07466      6.39387      6.07610        -0.302509      0.072341      0.018071
O	      4.10663      8.67185      6.03424         0.046144     -0.195963      0.082639
O	      4.14761      6.43092      8.10022        -0.007419      0.108896      0.355428
O	      6.16362      8.56414      8.07810         0.103554      0.022626      0.344148
O	      6.18631      6.59663     10.17594         0.119883     -0.101097      0.133187
O	      8.27997      8.66240     10.17352         0.067213     -0.393067      0.719402
