# total energy = -208.78364568 eV
 
CRYSTAL
PRIMVEC
0.001934 6.207776 6.263938 
6.245561 -0.002401 6.268120 
4.161013 4.138703 0.000980 
PRIMCOORD
36 1
Li	      2.11179      6.15966      8.33279         0.106671      0.029213      0.070237
Li	      6.29526      8.23007     10.42303         0.075496      0.051647     -0.062820
Li	      8.29084      4.23158      8.25854        -0.159308     -0.085710      0.099159
Li	      8.26072      6.22307      6.36041        -0.168395      0.117201      0.007623
Li	      6.19923      4.28650      6.34508        -0.137148      0.177173      0.025897
Li	      8.27797      6.23859     10.38361         0.014774      0.063498     -0.098736
Li	      4.23469      6.12654      6.38391         0.199743     -0.031274      0.044081
Li	      4.15751      4.10000      8.28137        -0.090525      0.011920      0.005079
Li	      6.29959      6.20180      8.25034         0.079907      0.076009     -0.137311
Fe	      4.18620      8.23599      8.35922        -0.027952     -0.184337      0.018310
Fe	      8.26686      4.12525      4.17696        -0.230185     -0.225488     -0.217268
Fe	     10.25716      6.22894      8.30812         0.309747      0.202828      0.077396
Fe	      4.24680      4.15980      4.22616        -0.154532     -0.059817      0.283043
Fe	      6.27573      4.15151     10.34957        -0.132903     -0.315983      0.038357
Fe	      2.16782      4.10536      6.31307         0.199938     -0.260739      0.109608
Co	      4.15446      4.12200      0.01238         0.513840      0.219714      0.047262
Co	      2.07972      8.23075      6.28341        -0.047182      0.094064     -0.329758
Ni	      6.24190      6.20708      4.21845         0.038954      0.096346     -0.005257
O	      2.10060      2.05674      1.90763         0.033061     -0.015606      0.477402
O	      4.14568      4.12351      2.07047        -0.060720      0.008261     -0.151150
O	      4.14391      2.10005      4.10897         0.162096      0.029179      0.033951
O	      6.23086      4.17003      4.22430         0.113418     -0.243790      0.010184
O	      6.39117      1.89487      6.32009         0.062700     -0.100141     -0.176143
O	      8.45805      4.05515      6.20372         0.203097     -0.321014      0.251426
O	      2.08346      4.12167      4.27986         0.018439      0.268453     -0.396275
O	      4.20475      6.20747      4.08657        -0.174136     -0.063724      0.028529
O	      4.12298      4.17699      6.17954         0.228455      0.056171     -0.162721
O	      6.22545      6.33312      6.24336        -0.038031     -0.529488      0.034612
O	      6.25444      4.08096      8.42858         0.001712      0.075693     -0.104629
O	      8.39812      6.22273      8.34132        -0.013276     -0.106240     -0.031330
O	      1.93022      6.18820      6.25646        -0.673604      0.674317     -0.025302
O	      4.08837      8.36348      6.26438        -0.166373      0.143591     -0.061465
O	      4.16241      6.28417      8.47156        -0.019568     -0.185171      0.072821
O	      6.16815      8.28068      8.24712        -0.169241      0.150069      0.401043
O	      6.18630      6.14424     10.60173         0.008580      0.105736      0.029157
O	      8.38197      8.29958     10.62516         0.092449      0.077441     -0.205012
