# total energy = -211.59308165 eV
 
CRYSTAL
PRIMVEC
0.012648 6.154232 6.169898 
6.296505 -0.030337 6.212478 
4.171431 4.104886 0.006243 
PRIMCOORD
36 1
Li	      6.31953     10.20104      8.25104        -0.020750     -0.013164     -0.041616
Li	      4.25623      8.13832      8.24816         0.045525     -0.043561     -0.041197
Li	      4.17355      6.14213     10.22035        -0.003516      0.012260     -0.026826
Li	      4.19796      4.10627      4.14207         0.001673     -0.008621     -0.033134
Li	      6.22308      4.12572      6.15531        -0.040347      0.022815      0.006518
Li	      0.08299      4.05871      4.14145         0.055039     -0.050614      0.073786
Li	      2.12508      6.10092      4.19279         0.036921     -0.024059      0.016304
Li	      2.12795      4.13814      6.11896         0.021882      0.002544     -0.012868
Li	      4.16388      6.09303      6.22226        -0.004789     -0.024131      0.013267
Fe	      0.05971      6.09629      6.09127         0.038022     -0.035780     -0.044986
Fe	      8.46159      8.13730     12.26873        -0.021315     -0.006732      0.023095
Fe	      4.15841      6.18653      2.15957        -0.047250      0.000854     -0.023726
Fe	      2.10098      4.10433      2.14337        -0.037058      0.039144     -0.006765
Fe	      6.24493      6.03416      4.19828         0.015285      0.057938      0.012297
Fe	      4.16691      2.12659      6.12881        -0.028819     -0.019730      0.056958
Co	      6.27154      2.08083      4.11563         0.039829      0.001324     -0.145376
Co	      8.37462      8.22585      8.30182        -0.020737      0.068067     -0.025770
Co	      6.26586      6.14096      8.28499        -0.079949      0.038356      0.011109
O	      2.00127      2.09313      2.03980         0.026555     -0.006958     -0.038316
O	      4.09174      4.20991      1.97453         0.031565     -0.050136     -0.002131
O	      4.23611      2.05956      4.17602         0.016754     -0.016413     -0.084965
O	      6.27357      4.08442      4.11279         0.005290     -0.123879     -0.025376
O	      6.28732      2.01689      6.13507        -0.006950      0.003476      0.045041
O	      8.43132      4.07904      6.29655        -0.031725      0.052441     -0.011073
O	      2.10888      3.98134      4.05452         0.008545      0.011033      0.049744
O	      4.24158      6.13331      4.06573        -0.009845      0.000155      0.077101
O	      4.19789      4.03902      6.38682         0.020444      0.027715      0.064220
O	      6.35731      6.13070      6.24730        -0.030156      0.006454      0.087392
O	      6.22769      4.12642      8.29515        -0.027899      0.044021      0.048002
O	      8.34589      6.17485      8.26336        -0.004701      0.016406     -0.030690
O	      2.02388      6.21611      6.17617         0.006232     -0.017226      0.025062
O	      4.10207      8.26093      6.13934         0.033297     -0.030234      0.041527
O	      4.37721      6.01508      8.24664         0.049854     -0.014756     -0.020002
O	      6.41408      8.08226      8.38191         0.055453     -0.020310      0.061451
O	      6.28697      6.28301     10.24460        -0.012878      0.085992     -0.028668
O	      8.21747      8.21161     10.28568        -0.079479      0.015311     -0.069387
