# total energy = -202.23794518 eV
 
CRYSTAL
PRIMVEC
0.022418 6.163249 6.334573 
6.227877 0.033314 6.323912 
4.165799 4.115665 0.008188 
PRIMCOORD
36 1
Li	      4.12764      2.07438      2.11106         0.007077      0.021217      0.007221
Li	      6.22924      2.08984      4.23932        -0.024345      0.050925      0.077355
Li	      0.07398      2.12144      2.13119         0.044877     -0.011525      0.015695
Li	      8.18562      4.07865      8.49684         0.067961     -0.043316      0.059966
Li	      6.18744      6.19448      4.20242        -0.008437     -0.002438      0.038463
Li	      6.19321      4.15784      6.44647        -0.045196     -0.027765     -0.069303
Li	      6.27826      4.09572     10.44654         0.018077     -0.004219      0.068695
Li	      4.24046      6.14980      6.27413         0.007619     -0.011106     -0.129756
Li	      4.26843      4.15860      8.35808        -0.077909      0.051674     -0.079405
Fe	      4.15063      4.10887      0.08078         0.031718     -0.016816     -0.021542
Fe	      6.26249      4.15003      2.16636        -0.088562     -0.173149     -0.054936
Fe	      4.17425      6.18138     10.51861        -0.098886     -0.040336      0.247243
Fe	      4.17462      2.09957      6.36399        -0.014263      0.025113     -0.202632
Fe	      8.40119      6.24746     10.42195        -0.159011     -0.039826      0.419221
Fe	      6.22984      8.19267      6.32789         0.094424      0.082733     -0.207791
Cu	      2.08800      2.06202      0.04190         0.028879      0.020117     -0.026047
Ni	      4.17905      4.11051      4.18586         0.023083     -0.062456     -0.011111
Ni	      6.22360      6.18492      8.44504        -0.027741     -0.529140     -0.014573
O	      6.22670      4.29099      8.43574         0.053758      0.084890      0.051508
O	      2.10122      1.96280      1.97891         0.040297      0.216156      0.102838
O	      4.28455      4.07974      2.08075        -0.175405      0.010636      0.033060
O	      4.14732      1.99951      4.34914        -0.003481      0.090266     -0.116876
O	      6.29849      4.11496      4.11977        -0.014022      0.008331      0.205531
O	      6.14767      2.01765      6.38780         0.250435      0.133850      0.029317
O	      8.37193      4.14615      6.28163        -0.137907     -0.064615      0.106253
O	      2.11945      4.21685      4.32262        -0.091717     -0.137969     -0.266090
O	      4.06204      6.14225      4.18069         0.297869      0.055183     -0.033642
O	      4.09578      4.05806      6.25584         0.141392      0.131643      0.172133
O	      6.29762      6.23653      6.39125        -0.076327     -0.236834      0.058475
O	      8.23277      6.20970      8.45802        -0.168194      0.056926     -0.268719
O	      2.05809      6.14746      6.32739         0.079335      0.150885     -0.002936
O	      4.25444      8.28571      6.32784        -0.349839     -0.127858      0.020850
O	      4.15826      6.16120      8.55691         0.329246      0.156709     -0.255392
O	      6.26900      8.24392      8.30777         0.019397      0.027998      0.242850
O	      6.24478      6.22274     10.57801         0.016713      0.024463     -0.072136
O	      8.32389      8.24137     10.72838         0.009078      0.129655     -0.123785
