# total energy = -203.72893270 eV
 
CRYSTAL
PRIMVEC
0.006751 6.127256 6.167809 
6.429811 -0.005004 6.179304 
4.287593 4.093376 -0.004314 
PRIMCOORD
36 1
Li	     10.70996     10.20038     12.32921        -0.007278      0.009984      0.031091
Li	      6.42558     10.20765      8.21450         0.003023      0.008001     -0.013396
Li	      4.31666      8.18788      8.19808         0.001127      0.014312      0.031999
Li	      8.60067      4.14341      8.18692         0.073608      0.008574     -0.022613
Li	      8.53144      6.09897      6.22286        -0.022922     -0.030209      0.013088
Li	      6.49322      4.12177      6.19442         0.029670      0.031949     -0.026930
Li	      8.51891      6.09881     10.26489        -0.052239     -0.001220     -0.014106
Li	      4.30129      6.15234      6.20548         0.017500     -0.014787      0.034143
Li	      6.43566      6.10744      8.19823        -0.025170     -0.010904     -0.063849
Fe	      2.17020      8.11016      6.22633        -0.023927     -0.069203      0.015764
Fe	      4.34325      6.11870     10.28897        -0.287805     -0.026966      0.047480
Fe	     10.67043      6.07181      8.17859         0.018240      0.123717     -0.069989
Fe	      2.16347      2.04715      4.12872         0.156195      0.037050     -0.103938
Fe	      2.12152      4.14454      6.20402         0.036779      0.050487     -0.028349
Fe	      4.27796      4.07257      8.15158        -0.078924     -0.041166      0.085101
Cu	      4.32944      4.09734      4.15131         0.018119      0.016314      0.037811
Cu	      6.36970      2.02156      4.12534        -0.005372      0.012950      0.012249
Cu	      6.45455      4.11043     10.28356         0.007652     -0.050522     -0.014589
O	      6.33233      6.08672     10.26469         0.241138     -0.197653      0.003426
O	      2.09403      2.06618      2.04939         0.041550      0.041821      0.102066
O	      4.27229      4.19048      2.17244         0.052264     -0.350728      0.068424
O	      4.32267      1.98976      4.10799         0.013264      0.081615      0.001675
O	      6.40857      4.14933      4.14677        -0.030093     -0.094543      0.002902
O	      6.53011      2.01534      6.23678        -0.044815     -0.002189     -0.348549
O	      8.56976      3.94610      6.07280         0.013372      0.174072      0.099165
O	      2.32453      4.04700      4.19534        -0.049425      0.124689     -0.194505
O	      4.42186      6.20474      4.03839        -0.114472      0.183934      0.177023
O	      4.21405      4.11985      6.18873         0.074810      0.019197     -0.128243
O	      6.43781      6.24549      6.07202        -0.003685     -0.117716      0.093755
O	      6.33944      4.00493      8.34398         0.100005      0.256276      0.193415
O	      8.69181      6.20871      8.21798        -0.145580     -0.135023      0.038344
O	      2.15491      6.14071      6.15558        -0.008489     -0.034896     -0.040428
O	      4.28730      8.17936      6.05306         0.008082      0.013458     -0.178433
O	      4.28581      6.01898      8.35069         0.001191      0.146459     -0.139536
O	      6.49393      8.16266      8.14602        -0.066522     -0.060073      0.348779
O	      8.34903      8.18989     10.30111         0.059129     -0.117061     -0.050247
