# total energy = -209.69272816 eV
 
CRYSTAL
PRIMVEC
0.007260 6.267343 6.202848 
6.301562 -0.012339 6.222734 
4.187924 4.178201 0.004941 
PRIMCOORD
36 1
Li	     10.47015      4.17708      6.23338         0.029294     -0.018962     -0.012430
Li	      4.14271      2.12412      2.12723         0.021523      0.018909      0.024250
Li	      4.22404      0.04526      4.16867         0.009349     -0.043264     -0.044135
Li	      6.23850      2.02559      4.18723         0.003840     -0.057293     -0.031941
Li	      2.24755      4.11522      2.11012         0.083276      0.034396      0.059375
Li	      2.10873      2.12554      4.10042         0.008824     -0.021157     -0.021571
Li	      4.15443      4.18582      4.10642        -0.018979      0.088450     -0.070338
Li	      2.12857      6.23750      4.18848        -0.029680     -0.026561     -0.069356
Li	      4.17162      6.28000      6.17035        -0.030595      0.051011     -0.014976
Fe	      2.13766      8.37020      6.18353         0.168129     -0.249620     -0.016456
Fe	      6.19938      4.22827      2.16671         0.173003     -0.096762      0.130492
Fe	      6.30139      4.18610      6.04498        -0.059551      0.108331      0.124243
Fe	      4.24195      8.30817      4.14834         0.083310      0.240445     -0.182303
Fe	      2.08957      4.25277      6.13223        -0.023202     -0.087145     -0.009462
Fe	      8.35566      8.39736      8.35808         0.075328     -0.313222      0.067166
Fe	      6.23404      6.27010      8.33884         0.240667      0.035247      0.071505
Co	      4.21362      2.03609      6.16077        -0.115797      0.096157      0.139729
Cu	      4.19394      6.20240      2.10529        -0.093358      0.014687     -0.036080
O	      4.21836      2.06205      4.41065         0.018015     -0.006021     -0.271509
O	      2.13956      2.03172      1.98184         0.091624      0.097851     -0.091925
O	      4.26696      4.19929      2.10066        -0.080469     -0.121948     -0.004495
O	      6.28722      4.17214      4.15205        -0.010505     -0.017911     -0.057847
O	      6.32394      2.14611      6.29464        -0.360402     -0.023711     -0.027134
O	      8.31195      4.11418      6.24461        -0.006542      0.497282     -0.044768
O	      2.05796      4.17860      4.21685         0.081037      0.000834     -0.010707
O	      4.18465      6.36827      4.01006         0.012546     -0.176523      0.172954
O	      4.19238      4.14082      6.28256         0.039293     -0.492471     -0.182435
O	      6.33719      6.25254      6.29035         0.367251      0.015559     -0.207416
O	      6.21132      4.21303      8.24572        -0.029566      0.000777     -0.100642
O	      8.35402      6.30048      8.05861        -0.229227      0.145259      0.345968
O	      2.12233      6.25685      6.30151         0.015580      0.171929     -0.063384
O	      4.20679      8.35651      6.14585        -0.098259     -0.026720      0.099244
O	      4.21404      6.19974      8.30128        -0.183088      0.001468     -0.081647
O	      6.33318      8.33812      8.23758        -0.085768      0.138780     -0.087990
O	      6.34812      6.17671     10.22440        -0.028839     -0.005598      0.311972
O	      8.45429      8.30203     10.37046        -0.038061      0.027516      0.194051
