# total energy = -211.48084134 eV
 
CRYSTAL
PRIMVEC
-0.008936 6.291837 6.227539 
6.300396 -0.040946 6.259941 
4.178132 4.193705 -0.005161 
PRIMCOORD
36 1
Li	      6.29293     10.36281      8.29670        -0.049878     -0.020666      0.025652
Li	      4.35424      8.33713      8.27548         0.034990      0.017106      0.043500
Li	      6.24019      8.37100     10.32800        -0.072505      0.049216     -0.005950
Li	      6.28987      6.27450      4.34588         0.053633     -0.045359      0.054271
Li	      8.18257      6.28466      6.21975        -0.086581      0.082800     -0.072557
Li	      6.22674      4.42113      6.23113        -0.060064      0.107966     -0.069620
Li	      6.24340      8.18779      6.30186         0.098996     -0.073651      0.018912
Li	      4.41428      6.27435      6.27534         0.074673     -0.090178     -0.006359
Li	      6.20395      6.38049      8.09483        -0.015664      0.051757     -0.067547
Fe	      2.08284      2.06515      0.02718        -0.044257      0.001444      0.041788
Fe	      4.04900      0.16029      4.10818         0.007604      0.055807      0.080589
Fe	      0.01162      2.08026      2.05236         0.077638     -0.179756     -0.034034
Fe	      8.38154      4.16411      8.29411         0.108438     -0.010457     -0.036720
Fe	      4.19642      8.37088      4.18729         0.089721      0.012971      0.066017
Fe	      2.06983      6.28172      4.18859        -0.038712     -0.082564      0.066853
Fe	      4.03274      4.23363      8.14588         0.108925     -0.020451      0.120965
Co	      4.37131      3.99889      4.34443        -0.229565      0.275044     -0.692685
Co	      4.17447     10.46430      6.24085         0.052636      0.060886     -0.002725
O	      6.28540      6.28264      6.22845        -0.030736      0.051449      0.097340
O	      2.02219      2.20157      2.01235         0.011037     -0.014677      0.002075
O	      4.11068      4.24059      2.03498         0.006456     -0.020140      0.061875
O	      4.20799      2.08443      4.13232         0.215317      0.339019      0.184044
O	      6.28678      4.16793      4.18228        -0.306221     -0.212690      0.142938
O	      6.36735      1.87879      6.31778        -0.054851     -0.026139     -0.057785
O	      8.50885      4.10071      6.22671         0.026363     -0.011195      0.020466
O	      2.06826      4.26645      4.07080         0.153873     -0.082249      0.064782
O	      4.09787      6.29852      4.12394         0.108281     -0.181134      0.050938
O	      4.21101      4.18744      6.19354        -0.028972     -0.065948      0.049238
O	      6.32445      4.07950      8.40093        -0.140599      0.053387      0.022038
O	      8.44188      6.24934      8.39305        -0.051533      0.086183      0.001735
O	      1.93644      6.35280      6.18122        -0.032244     -0.066225      0.002798
O	      4.10703      8.49537      6.18278         0.041149      0.010459     -0.020400
O	      4.19881      6.20060      8.43804         0.006403     -0.048903     -0.102035
O	      6.37606      8.35970      8.32026         0.023685     -0.019791     -0.047901
O	      6.29226      6.18418     10.57226        -0.050412     -0.012737      0.047403
O	      8.44885      8.32338     10.41216        -0.007023      0.029416     -0.049896
