# total energy = -92.38674681 eV
 
CRYSTAL
PRIMVEC
0.000202 2.022260 2.020545 
6.066322 6.126742 -4.100240 
-4.051715 2.050629 -2.049248 
PRIMCOORD
16 1
Li	     -1.98916      4.00369     -2.01921        -0.162285      0.084671     -0.141848
Li	      2.01262      5.93573     -3.95033         0.089388      0.208397     -0.309063
Li	     -0.00599      3.98755     -0.02748         0.021829     -0.098103      0.144467
Li	      3.92778      6.06574     -2.09378         0.295393      0.022562      0.074603
Mn	     -3.96525      2.01010     -2.00544        -2.203569     -0.981703      0.256237
Mn	     -0.01019      5.99603     -2.03071        -0.935179      0.648680     -0.017889
Ni	      3.95278      7.99670     -4.02644         0.761106      0.352709     -0.006167
Ni	      1.98713      4.00368     -2.01959         0.647471     -0.554080     -0.029957
O	      4.08711      6.01556     -4.02549         0.833028     -0.170030     -0.149666
O	      0.00501      5.88830     -3.90455         0.042655      0.450673     -0.825169
O	      1.96507      8.12206     -4.14973         0.117164      1.016388     -0.662490
O	     -2.11579      3.96092      0.00307         0.080860      0.037670      0.141971
O	     -0.00528      4.10515     -2.12021        -0.750781     -0.779392      0.427264
O	      1.85325      5.98496     -2.02000         0.790661      0.610004     -0.179176
O	     -0.00029      1.89133      0.09243         0.183466     -0.364702      0.421846
O	      2.11138      4.01729     -0.05141         0.188793     -0.483746      0.855037
