# total energy = -207.39522543 eV
 
CRYSTAL
PRIMVEC
0.020251 6.233927 6.308014 
6.204761 0.014585 6.313532 
4.150196 4.173338 -0.003942 
PRIMCOORD
36 1
Li	      2.11165      8.29557      6.34752        -0.032847     -0.026476      0.041362
Li	      2.12470      6.17801      8.38172        -0.083509     -0.016909     -0.107388
Li	      6.25596      2.14391      8.33862         0.017082      0.004960     -0.019182
Li	      6.20042      6.27502      4.22277        -0.171516      0.111684      0.041862
Li	      6.21284      4.17620      6.36053        -0.008250      0.002760      0.102054
Li	      0.03377      4.12588      4.19139         0.098065     -0.104853     -0.009020
Li	      6.24339      8.31342      6.40961         0.004243      0.004133      0.028935
Li	      4.09247      4.17087      8.34872        -0.007023     -0.046335     -0.065824
Li	      6.23737      6.25275      8.35879         0.035890     -0.044003     -0.097452
Fe	      4.21525     10.38088      6.33751         0.271716     -0.095083      0.161322
Fe	      4.12784      6.21204     10.44322        -0.075213     -0.322317     -0.064453
Fe	      6.25085      8.34536     10.41675         0.080295     -0.180803      0.273795
Fe	      8.18764      4.13097      8.43781         0.213184      0.155876      0.124927
Fe	      4.18189      4.18821      4.26223        -0.392331      0.556272     -0.119436
Fe	      8.32459      6.27833     10.49981         0.282199     -0.340498      0.320079
Fe	      4.27177      6.31035      6.38899        -0.069743     -0.132044     -0.306833
Cu	      8.23560      6.29219      6.35923        -0.276032      0.192926      0.213221
Ni	      4.15020      8.31916      8.39582         0.061805      0.060858     -0.281410
O	      6.18631      6.27070      6.32106         0.348245     -0.027313     -0.058312
O	      2.08850      2.28078      2.09369        -0.036404     -0.281945      0.030247
O	      4.02108      4.16945      2.08277        -0.024812      0.062332      0.058396
O	      4.15870      2.13203      4.15346        -0.150043     -0.854695      0.394249
O	      6.16394      4.13287      4.17364         1.206729      0.050455     -0.038978
O	      6.09482      1.99423      6.23147         0.060678      0.158347     -0.166412
O	      8.34088      4.25817      6.24328        -0.178873      0.011652     -0.606193
O	      2.18588      4.26315      4.16313        -0.187489     -0.222901      0.012016
O	      4.11697      6.19396      4.34322         0.184972      0.103460     -0.023846
O	      4.16173      4.17252      6.25542        -0.013697     -0.151770      0.195834
O	      6.40546      4.13512      8.41615        -0.267784      0.015385      0.050769
O	      8.28710      6.11971      8.52714         0.021067      0.118709     -0.742465
O	      2.07844      6.26765      6.23528        -0.033495      0.011268      0.070925
O	      4.16501      8.32993      6.34009        -0.052052      0.088367      0.009633
O	      4.13685      6.24375      8.38705        -0.009558     -0.051637      0.896603
O	      6.17745      8.32093      8.51164        -0.007446     -0.038630     -0.131548
O	      6.25622      6.25822     10.59573        -0.872938     -0.011764     -0.175403
O	      8.25587      8.27612     10.46764         0.064883      1.240527     -0.012076
