# total energy = -206.81416125 eV
 
CRYSTAL
PRIMVEC
0.012122 6.248852 6.314374 
6.269832 0.010612 6.316332 
4.192772 4.179991 -0.005912 
PRIMCOORD
36 1
Li	      6.20758      6.26371     12.46798         0.032307      0.006650     -0.040973
Li	      8.47239     10.39293     10.64273         0.074712     -0.096944      0.004416
Li	      6.28831      2.04632      4.31445         0.087900     -0.057294     -0.004454
Li	      8.38920      4.17328      8.34334        -0.030685      0.068726     -0.049465
Li	      4.19251      2.06260      6.26620        -0.010120     -0.000750      0.061430
Li	      6.38265      4.13159      6.25831        -0.002387      0.007287      0.036210
Li	      6.26973      4.26834     10.54213        -0.063806      0.064682     -0.068098
Li	      2.03048      6.20537      4.25814        -0.070992      0.026768     -0.039989
Li	      2.12714      4.14591      6.25308         0.055917      0.046282      0.080271
Fe	      6.25442      4.18490      2.16885         0.044158     -0.152078     -0.277383
Fe	      4.18521      2.16774      2.12375         0.013316      0.017786     -0.088399
Fe	      6.24550      2.10577      8.35036        -0.138406      0.100657      0.037115
Fe	      6.32852      6.32933      4.32993        -0.053221     -0.137077      0.054315
Fe	      4.17655      6.25246      6.24798         0.010750     -0.149835      0.093915
Fe	      8.39168      8.33197      8.46331        -0.058428     -0.090981     -0.294062
Fe	      6.35556      6.18973      8.51826         0.158480     -0.021178     -0.242430
Cu	      8.36540      8.38948     12.55773        -0.052663     -0.141324     -0.190444
Cu	      4.17283      4.15710      4.28200        -0.041445      0.063089      0.132172
O	      8.37378      3.99173      6.28548        -0.011643      0.077793     -0.022869
O	      8.34353      8.35968     10.24266        -0.009884      0.021397      0.832582
O	      2.09029      2.04245      2.27680         0.029242      0.028528      0.098145
O	      4.25632      4.18520      1.99854         0.023170     -0.011694      0.084863
O	      4.15151      2.11612      4.15501        -0.039925      0.062151      0.072713
O	      6.17843      4.23649      4.14276        -0.075141      0.030160      0.202505
O	      6.45271      2.09406      6.40305        -0.032480      0.020195     -0.126102
O	      2.20159      4.10446      4.26697         0.124024      0.099240      0.012611
O	      4.24298      6.23355      4.21499         0.032336     -0.034435     -0.071642
O	      4.13985      4.28023      6.55356        -0.031421     -0.049053     -0.523512
O	      6.19850      6.26623      6.35031         0.007149      0.040167     -0.019649
O	      6.19035      4.14402      8.42929         0.281159     -0.030641     -0.020310
O	      8.41533      6.31523      8.32377        -0.009556     -0.183907     -0.051634
O	      2.17503      6.43205      6.37443        -0.097230      0.112724      0.065728
O	      4.01714      8.29801      6.39136         0.089741      0.065301     -0.041594
O	      4.18815      6.30514      8.36947        -0.108615      0.138848      0.025162
O	      6.23013      8.38211      8.36087        -0.116916      0.067999     -0.047421
O	      6.30704      6.25613     10.35406        -0.009397     -0.009241      0.326277
