# total energy = -206.94915456 eV
 
CRYSTAL
PRIMVEC
0.013519 6.215057 6.267990 
6.337035 -0.003789 6.285444 
4.214520 4.144903 0.007435 
PRIMCOORD
36 1
Li	      6.30462      0.13687      6.21376        -0.011664     -0.086600      0.016937
Li	      8.28571      2.11358      6.26169         0.034460      0.006590     -0.005219
Li	      8.43545      4.14196      4.28902        -0.030177      0.029558     -0.001454
Li	      6.27110      2.12233      8.26703        -0.051023     -0.033183      0.017959
Li	      6.35631      6.18209      4.24384         0.026282      0.001739      0.037992
Li	      4.34977      2.01499      6.27852        -0.030556     -0.019496      0.006997
Li	      6.38662      4.02796      6.28116         0.014201      0.089189     -0.000357
Li	      8.41495      6.25114     10.42596        -0.008358     -0.017878      0.017080
Li	      8.51093      8.19500      8.38880        -0.002229     -0.032684     -0.018094
Fe	      2.13221      0.07454      2.10300        -0.037524      0.013680      0.007553
Fe	      4.20644      2.08698      2.14719         0.026660      0.013891     -0.153362
Fe	      8.38905      4.19026      8.30016         0.028297     -0.256545      0.299516
Fe	      4.26935      4.16980      4.19918        -0.063959      0.085211      0.019081
Fe	     10.38169      8.33831     10.45775         0.215016     -0.205789      0.043543
Fe	      2.14114      4.11263      6.22224         0.051419      0.025528     -0.017564
Fe	      4.25256      6.20195      6.25370        -0.020159     -0.030257      0.024667
Ni	      6.39974      8.25463     10.51044         0.078743     -0.033295     -0.092350
Ni	      6.37056      6.16580      8.38986        -0.068713      0.048253     -0.066022
O	      6.35439      2.06927      6.14853        -0.055637     -0.009402      0.122672
O	      2.21120      2.10953      2.09631        -0.055750      0.023944     -0.005374
O	      4.26224      4.12150      2.16342        -0.023417      0.082281     -0.077239
O	      4.29952      2.14133      4.11657         0.032996     -0.047740      0.106351
O	      6.27203      4.13551      4.09363         0.107915      0.013841      0.085457
O	      8.43430      4.13081      6.51917         0.022185      0.024988     -0.344765
O	      2.13352      4.12973      4.14081         0.024069     -0.001669      0.009180
O	      4.21088      6.23592      4.27034        -0.004768      0.001437     -0.046596
O	      4.15561      4.18203      6.19946         0.042013     -0.050605      0.089442
O	      6.25369      6.28966      6.33830         0.057777     -0.066689     -0.088845
O	      6.36786      4.11283      8.47168        -0.034317     -0.129543     -0.103728
O	      8.42744      6.04482      8.36714         0.100699      0.225266     -0.027367
O	      2.18957      6.12571      6.39410        -0.007037      0.057296     -0.093165
O	      4.32680      8.25724      6.25994        -0.042625      0.043079      0.063058
O	      4.18237      6.29385      8.31703         0.004966     -0.017424      0.016791
O	      6.30344      8.31140      8.37137         0.023128      0.063311      0.026273
O	      6.30847      6.13826     10.43683         0.017048      0.198340      0.116424
O	      8.49660      8.28693     10.47435        -0.359963     -0.008625      0.014528
