# total energy = -184.88869139 eV
 
CRYSTAL
PRIMVEC
0.025204 6.218512 6.095430 
6.178038 0.042103 6.078414 
4.129975 4.145672 0.016663 
PRIMCOORD
36 1
Li	      6.21173      0.13279      6.10769        -0.003612      0.027659      0.003817
Li	      2.00828      2.01054      0.02753        -0.024756     -0.000703      0.011702
Li	      2.09422      6.18520      8.06595        -0.004916     -0.018880     -0.021179
Li	      6.15910      2.11440      7.94143        -0.027934      0.014762     -0.097513
Li	      8.33470      6.21243      6.16160         0.014519     -0.063415      0.029767
Li	      6.15484      4.12996      6.09177         0.027464     -0.041340      0.025220
Li	      2.06744      6.24807      4.12914        -0.029017     -0.008466      0.007301
Li	      2.13085      4.23499      6.15905         0.017646      0.068653      0.012209
Li	      4.10496      4.14454      8.04429         0.023702     -0.047151     -0.018979
Mn	     10.29748      8.33169     10.17104         0.046313      0.026729     -0.022453
Co	      8.23821      4.19670      8.05257        -0.025505      0.064310      0.087733
Cu	      4.15814      8.34194      8.09987        -0.037224      0.056817     -0.135760
Ni	      8.22248      4.15356      4.15565        -0.006072      0.017943      0.041476
Ni	      6.22690      2.11682      4.09426         0.079928     -0.040014     -0.080448
Ni	      6.20795      6.20961      4.11070        -0.001063     -0.000881      0.037923
Ni	      4.13411      4.18144      4.09963        -0.058916      0.023755     -0.016610
Ni	      4.11302      6.23544      6.10987         0.044057      0.058887     -0.007678
Ni	      6.22320      6.25033      8.07876         0.087647     -0.103981     -0.015605
O	      2.26369      6.23311      6.12263        -0.213723      0.008757      0.025611
O	      2.13388      2.24395      2.10479         0.025892      0.024696     -0.139215
O	      3.98410      4.11103      2.07766        -0.044129      0.025256     -0.126675
O	      4.13132      2.07791      4.01111         0.040099      0.025985      0.086475
O	      6.20341      4.16841      4.02100        -0.037272     -0.017258     -0.012539
O	      6.18048      2.09613      5.96198        -0.015006      0.014254      0.189278
O	      8.24256      4.16188      6.23226        -0.001858     -0.021939      0.141755
O	      1.99422      4.10383      3.93898        -0.101637      0.090432     -0.038755
O	      4.16205      6.30227      4.22108        -0.089275      0.117044     -0.198195
O	      4.11355      4.37153      6.06983         0.012579     -0.195534      0.150043
O	      6.05317      6.24354      6.09786         0.114646      0.032522      0.017912
O	      6.29903      4.15589      8.23063        -0.009831     -0.086619     -0.068962
O	      8.18688      6.05841      8.11879         0.099145     -0.082531     -0.013742
O	      4.16219      8.16928      6.04483         0.011372      0.134802     -0.011771
O	      4.22073      6.33977      7.98846        -0.074632     -0.026797      0.193492
O	      6.14655      8.27411      8.25922         0.008528      0.115838     -0.089377
O	      6.15167      6.14670     10.10991         0.113513     -0.049091      0.066123
O	      8.36867      8.37574     10.09194         0.039327     -0.144500     -0.012384
