# total energy = -184.87661162 eV
 
CRYSTAL
PRIMVEC
-0.053778 6.170055 6.320978 
6.107539 -0.035842 6.301934 
4.050519 4.079313 -0.002187 
PRIMCOORD
36 1
Li	      6.00370      0.07936      6.27504         0.089097     -0.060515     -0.017061
Li	      8.02278      2.13213      6.23395         0.067559     -0.064092     -0.078280
Li	      4.05695      2.01114      2.18611         0.014786     -0.031217     -0.052408
Li	      8.07580      4.11136      4.27065         0.076637     -0.102213      0.026526
Li	      6.08107      2.03017      4.32849        -0.012372      0.057600      0.040490
Li	      4.10514      3.97997      4.19618        -0.056461      0.037261      0.007473
Li	      4.14259      1.97564      6.17561        -0.067581      0.082849     -0.044812
Li	      6.16089      3.95957      6.22145        -0.082389      0.064924     -0.063223
Li	      8.04288      8.19101      8.44336         0.017376      0.035552      0.005388
Mn	      4.03370      6.12289      6.32089        -0.024444     -0.045313      0.249452
Co	      6.06383      8.17277      6.33352         0.062028      0.013956      0.255528
Cu	      8.16493      4.02959      8.28502         0.108268     -0.077874      0.121318
Cu	      8.07919      6.16528     10.51642         0.026575     -0.240482      0.290188
Ni	      6.07294      4.05099      2.13972        -0.053646     -0.090253     -0.052010
Ni	      6.07918      2.03868      8.32910        -0.020565     -0.023437     -0.018084
Ni	      6.12744      6.06176      4.20494        -0.185807      0.140762      0.089103
Ni	      6.05321      4.11541     10.52489        -0.064994      0.042314      0.006295
Ni	      6.05887      6.14565      8.43973        -0.118686      0.013848     -0.063971
O	      8.10763      6.05896      8.57741         0.171584     -0.096455     -0.417362
O	      8.14421      8.10161     10.50794         0.072223      0.192888      0.041225
O	      1.97081      2.03553      2.18294         0.032628      0.319435     -0.046297
O	      3.96991      4.20540      2.10301         0.316352      0.057940     -0.053707
O	      3.95696      2.01129      4.19876         0.322562     -0.030994     -0.052696
O	      6.08808      4.12582      4.12377         0.028428     -0.180801      0.120543
O	      6.07358      2.04368      6.37901         0.010220     -0.029266     -0.072214
O	      8.10821      4.08031      6.37043         0.004919     -0.029951     -0.211301
O	      1.96541      4.06078      4.41117        -0.085537      0.087724     -0.004522
O	      4.06762      6.16124      4.32212         0.020744      0.093818      0.057523
O	      3.87939      4.20557      6.29500        -0.007463     -0.029773      0.011676
O	      5.96849      6.23395      6.33780        -0.028057      0.075558     -0.085840
O	      6.23442      4.02511      8.46649        -0.385124     -0.000312      0.081974
O	      2.08982      6.02931      6.29040         0.052734      0.002404      0.075610
O	      4.15680      8.06872      6.26933        -0.003259     -0.025521      0.099576
O	      4.02489      6.12439      8.21409         0.016026      0.008860     -0.169515
O	      6.01929      8.19640      8.18479         0.011468     -0.054246     -0.186380
O	      6.13563      6.12396     10.45531        -0.325828     -0.114978      0.109797
