# total energy = -185.35236407 eV
 
CRYSTAL
PRIMVEC
-0.009927 6.188191 6.313045 
6.074824 -0.007202 6.310528 
4.049602 4.123140 -0.004399 
PRIMCOORD
36 1
Li	     10.05071      4.18367      6.31678        -0.035148      0.040439     -0.014575
Li	      6.11870      8.18718     10.58734         0.025571     -0.047483     -0.015435
Li	     10.05497      6.17631      8.38151        -0.074384      0.019849     -0.007852
Li	      8.08403      4.18429      8.42813        -0.002810      0.045836      0.041440
Li	      4.01724      4.12261      4.21896        -0.005040      0.025659      0.015606
Li	      4.11518      2.02631      6.34466         0.035975     -0.016491      0.136149
Li	      6.07639      4.10102     10.46493         0.002167      0.008918     -0.074536
Li	      8.07523      6.23331     10.45446         0.005516      0.085100      0.022031
Li	      8.13921      8.16618      8.42150         0.047516     -0.044597      0.047926
Mn	      6.03747     10.29305      8.38493        -0.249255      0.009004     -0.240925
Co	      6.16944      6.11798      8.50495         0.248678     -0.464200      0.010302
Cu	      4.03412      2.08166      2.08982        -0.073353      0.438817      0.065847
Cu	      2.00813      2.08364      4.17927        -0.198014      0.119392      0.051277
Cu	      4.05850      6.16119      6.28678        -0.019044     -0.112757     -0.193530
Ni	      8.06395      8.25532     12.55876        -0.111866     -0.024060      0.083230
Ni	      8.11477     10.29085     10.55688         0.024379     -0.120914      0.001627
Ni	      6.07153      4.09887      6.39019        -0.023136     -0.032959      0.029645
Ni	      2.05143      4.08330      6.26961         0.111521     -0.044145     -0.006263
O	      7.95335      6.18536      8.45549         0.015655      0.073857      0.043678
O	      4.00572      8.17488      6.38395         0.088885     -0.056284      0.192854
O	      8.09623      8.28732     10.70463         0.030311     -0.017469     -0.336827
O	      2.03753      1.91736      1.85546        -0.126807     -0.170309      0.060323
O	      4.17214      4.06998      2.04946         0.120400      0.018987     -0.000215
O	      3.88474      2.03065      4.08333         0.068495     -0.026514     -0.185555
O	      6.08129      4.28964      4.01633         0.009921     -0.073427     -0.104060
O	      6.13117      2.14974      6.29202        -0.212435     -0.103862     -0.017183
O	      7.99370      4.10934      6.27412         0.316428      0.161991     -0.164779
O	      2.03542      3.93143      4.29213        -0.006833     -0.000684     -0.089767
O	      4.19202      6.19304      4.31494         0.066191     -0.026114     -0.198754
O	      4.12284      4.18411      6.31939        -0.190323     -0.089280      0.034891
O	      6.02613      6.16336      6.60043         0.165109      0.096152      0.035440
O	      6.07617      4.27631      8.40793        -0.042120      0.233441      0.170532
O	      2.07768      6.11672      6.40945        -0.137412      0.052260      0.204446
O	      4.01143      6.24263      8.38404        -0.058167     -0.125801      0.227123
O	      6.01715      8.33177      8.39480         0.191409      0.072778      0.049564
O	      6.04462      6.20211     10.31016        -0.007983      0.094868      0.126326
