# total energy = -186.21506199 eV
 
CRYSTAL
PRIMVEC
0.023546 6.172762 6.162081 
6.212895 -0.007963 6.193594 
4.133710 4.127917 0.002961 
PRIMCOORD
36 1
Li	      8.24725      2.11589      6.22726        -0.074565      0.106239      0.046165
Li	      4.12493      2.05344      2.10256         0.002231     -0.021009     -0.002725
Li	      8.26206      4.08747      8.20611        -0.064733      0.083600     -0.150655
Li	      2.18041      2.04470      4.15173        -0.009884      0.036419      0.044484
Li	      4.13868      4.05978      4.18394         0.016815     -0.071995      0.095061
Li	      4.10666      2.05623      6.12172         0.026539     -0.013953     -0.022349
Li	      6.21237      4.16619      6.22384         0.105648     -0.130527      0.047341
Li	      4.16160      4.11512      8.19102         0.037742     -0.026020     -0.091236
Li	      6.25739      6.14694      8.14877         0.116560     -0.126668     -0.066097
Mn	      0.01711      2.07103      2.06006        -0.421054      0.316635      0.001463
Co	      8.30486      6.20008     10.28091         0.234312     -0.146765     -0.023334
Cu	     10.31677      4.13523      6.21627        -0.206869     -0.051573      0.057971
Cu	      6.20196      4.14488      2.09117         0.026900      0.048623     -0.078243
Cu	      6.20540      8.23829     10.25715         0.070728      0.142807     -0.033910
Cu	      6.24471      8.21612      6.19258         0.147447     -0.291777     -0.254751
Ni	      4.12394      0.02495      4.11517        -0.067439     -0.202197      0.016544
Ni	      6.23538      4.12169     10.26567         0.021994     -0.128901     -0.109653
Ni	      4.19819      6.14472      6.23781        -0.137324      0.070019     -0.156677
O	      2.09276      6.18043      6.06105        -0.035763     -0.122219     -0.325169
O	      4.29230      8.27048      6.12902         0.057990     -0.027263      0.019789
O	      4.06294      6.18588      8.28859        -0.358103      0.012266     -0.403713
O	      6.21465      8.32377      8.11133         0.001511      0.406363     -0.085447
O	      1.92027      1.99292      2.11918         0.210931     -0.293451     -0.020237
O	      4.17876      4.22950      1.99551         0.446977     -0.103557      0.082542
O	      4.26870      1.98101      4.10232         0.368404      0.617295     -0.055355
O	      6.23275      4.00850      4.05899        -0.194414     -0.579503      0.898691
O	      6.18042      1.98579      6.36748         0.020545      0.196617      0.135120
O	      8.38568      4.08668      6.06122        -0.104116     -0.132244      0.497881
O	      2.05210      4.31671      4.18524         0.035436     -0.052409      0.112785
O	      4.00734      6.20751      4.05942         0.022872      0.113561      0.022091
O	      4.00632      4.16092      6.19309        -0.088190     -0.122139     -0.070945
O	      6.16967      6.23087      6.16397         0.143904      0.162188     -0.049397
O	      6.24672      3.96074      8.24232        -0.026583     -0.071616      0.174565
O	      8.39446      6.14698      8.44507         0.092396     -0.089460     -0.213440
O	      6.35509      6.21828     10.33501        -0.067780      0.392997     -0.024508
O	      8.24026      8.08587     10.32147        -0.351065      0.099617     -0.014652
