# total energy = -185.42034489 eV
 
CRYSTAL
PRIMVEC
0.005148 6.149741 6.200269 
6.178592 0.004714 6.200628 
4.121467 4.102439 0.000805 
PRIMCOORD
36 1
Li	      2.13697      8.16397      6.23309         0.026376     -0.044173      0.167265
Li	      6.18133      4.05502      2.15948        -0.013014      0.033066     -0.181100
Li	      4.16420      8.20927      8.24941        -0.009517      0.005360     -0.111934
Li	      6.13743      2.09556      4.07779         0.114236     -0.191058      0.001132
Li	      2.13175      1.98231      4.11550        -0.102332      0.153981     -0.044511
Li	      4.18078      4.04599      4.11389        -0.239688      0.123002     -0.036703
Li	      4.14415      8.21529      4.21206         0.108430     -0.023527      0.071234
Li	      6.12801      8.21909      6.24129        -0.044657      0.015393     -0.004814
Li	      6.14022      6.21712      8.23899         0.019531     -0.007460     -0.133583
Mn	      8.17251      8.21865      8.28583         0.056659      0.000173     -0.154095
Co	      2.05906      6.14198      4.13905         0.162382     -0.105960      0.067364
Cu	      4.14441      6.13707      2.09357         0.263461     -0.059290      0.374606
Cu	      2.04790      4.07781      2.09091         0.058147     -0.164537      0.121084
Cu	      4.05719      2.06998      6.11881        -0.128784      0.222082      0.208633
Cu	      6.17007      4.10780      6.14200        -0.297075     -0.231410      0.350714
Cu	      4.13546      6.22573      6.16985         0.237386      0.185729     -0.017953
Cu	      4.18002     10.19329      6.21136         0.076223      0.172915      0.245839
Ni	      4.09274      0.03120      4.11322        -0.357394      0.378180     -0.011464
O	      2.18758      6.17208      6.02798        -0.194906     -0.076834     -0.050686
O	      4.13309      8.22743      6.23288         0.034397      0.052387      0.021135
O	      4.13893      6.00774      8.24337        -0.000710     -0.013305      0.540168
O	      6.34963      8.19078      8.25094        -0.028830      0.055729      0.090082
O	      6.33584      6.14938     10.49079        -0.332647      0.063018      0.028076
O	      1.94920      2.14962      2.11266         0.154412     -0.496066      0.064605
O	      4.04932      4.14395      1.95064         0.243826      0.015702     -0.156617
O	      4.13856      2.00731      4.18777        -0.008499     -0.775226     -0.628839
O	      6.22616      4.08167      4.21026         0.702626     -0.027925     -0.151000
O	      6.07451      2.02991      6.29406         0.238210     -0.063630     -0.232294
O	      8.14921      4.19905      6.22216         0.155091     -0.380688     -0.200716
O	      2.07379      4.30663      4.02440         0.050602      0.117043      0.172582
O	      3.95037      6.16914      4.13337        -0.186681     -0.053957     -0.091146
O	      4.15788      4.04509      6.31367        -0.056143      0.147967      0.081312
O	      6.15570      6.09252      6.16880        -0.296568      0.208523     -0.120725
O	      6.14709      4.03808      8.20831        -0.356350      0.100031     -0.343353
O	      8.26489      6.21406      8.35835        -0.091530      0.231310      0.033283
O	      8.25420      8.13204     10.19343         0.043332      0.433454      0.032420
