# total energy = -186.19200780 eV
 
CRYSTAL
PRIMVEC
-0.013768 6.215790 6.267756 
6.123785 -0.006769 6.260502 
4.070521 4.127245 0.007634 
PRIMCOORD
36 1
Li	     10.09677      4.17265      6.25722         0.033072     -0.001000      0.108093
Li	      8.08122      2.16121      6.20804         0.024656     -0.015525      0.040586
Li	      8.17012      4.11464      4.29852         0.023813      0.093772     -0.011273
Li	      6.15787      2.01673      4.29328        -0.090822     -0.000301      0.087784
Li	      6.12592      2.06025      8.24249         0.060981     -0.145286     -0.057746
Li	      8.16629      4.11004      8.23504         0.097818     -0.050758     -0.098764
Li	      4.07400      4.12760      4.15668         0.004182     -0.092895     -0.118990
Li	      8.23576      6.09504      6.26424         0.017989     -0.020080     -0.071497
Li	     10.17668      8.26877     10.45928         0.001454     -0.029800      0.087020
Mn	      8.15327      6.18482     10.41872         0.122759     -0.163982      0.028594
Co	      4.06291      2.12192      2.11600        -0.353055     -0.360501     -0.382620
Cu	      2.02908      2.08186      4.14688         0.171956      0.118005     -0.015592
Cu	      6.17358      4.07112      6.24411        -0.103753      0.367027     -0.001157
Cu	      2.03179      4.15644      6.26048        -0.277171      0.122679     -0.054798
Cu	      4.05585      6.23115      6.25185        -0.115810      0.359716      0.034416
Cu	      8.18361      8.20666      8.38193         0.085903     -0.022788      0.222825
Cu	      6.11730      6.15563      8.43675        -0.313346      0.355180     -0.199916
Cu	      6.08509      4.14461      2.18077        -0.123773      0.075728     -0.089636
O	      2.08894      6.17011      6.10252        -0.121935      0.177524     -0.153780
O	      4.09927      8.22174      6.45947         0.008863      0.103791     -0.172979
O	      4.06760      6.40164      8.29182        -0.142835     -0.518700      0.133783
O	      6.01747      8.33661      8.29289         0.349395      0.017934      0.017454
O	      6.24513      6.17753     10.42455        -0.071824     -0.037809     -0.141097
O	      8.18096      8.09518     10.31691        -0.033403      0.087373     -0.074741
O	      2.13676      1.99337      2.15581        -0.021508     -0.168465      0.148369
O	      4.14720      3.95878      2.04877         0.275900      0.640623      0.112602
O	      3.99514      2.06595      3.94344         0.118537      0.097839      0.543899
O	      6.10850      4.22059      4.34882        -0.025859     -0.080587     -0.270593
O	      6.09021      2.16523      6.26980        -0.000589     -0.335139     -0.047864
O	      8.08565      4.13521      6.24290         0.033930      0.013610      0.039067
O	      2.03445      4.17405      4.29647         0.033426      0.011876     -0.003524
O	      4.03038      6.20868      4.23408        -0.185988     -0.034763     -0.077066
O	      4.05510      4.22402      6.41785         0.127400     -0.272437      0.066930
O	      6.04864      6.24413      6.25862         0.280991     -0.223818      0.103072
O	      6.08868      4.20176      8.17000        -0.218429     -0.126563      0.215535
O	      8.07096      6.10025      8.50875         0.327074      0.058520      0.053604
