# total energy = -184.69330023 eV
 
CRYSTAL
PRIMVEC
0.016371 6.129484 6.239758 
6.150640 0.052768 6.202522 
4.119800 4.080916 0.016190 
PRIMCOORD
36 1
Li	      4.06373      2.12146      2.21687        -0.009594      0.001317     -0.057664
Li	      6.09096      2.14117      4.17704         0.079978     -0.085884      0.028582
Li	      6.15196      2.07233      8.20510         0.007225      0.115401      0.032901
Li	      2.08030      4.07344      2.09348        -0.069867     -0.040202      0.026696
Li	      2.09959      2.08180      4.18804        -0.067661      0.066035     -0.006293
Li	      8.17007      6.18524      6.22270        -0.006860      0.027161     -0.019662
Li	      6.19026      4.08580      6.19395        -0.007868     -0.043391      0.047323
Li	      8.19603      6.13156     10.25193         0.062838      0.024674      0.065430
Li	      2.11302      4.04054      6.19122        -0.035354      0.040935     -0.073629
Mn	      4.16939      6.12411      6.21826        -0.053467      0.101489     -0.703151
Co	      4.15554      8.15286      4.19433        -0.446571     -0.186241     -0.268410
Ni	      4.10514      4.10494      0.06877         0.006223     -0.062147     -0.129681
Ni	      2.05785      2.03240      0.02598         0.206557      0.066984     -0.370977
Ni	      6.14799      4.10643      2.07409         0.042664     -0.099856      0.015238
Ni	      8.17868      4.16365      4.20828         0.147884     -0.111074      0.009990
Ni	      4.11126      4.04644      4.10169        -0.252821      0.271183      0.173516
Ni	      4.12606      4.10680      8.27754         0.133338     -0.055350      0.146151
Ni	      6.20935      6.18949      8.31143        -0.002176     -0.069458      0.084981
O	      2.07760      1.92812      1.87333        -0.020098      0.190305      0.361054
O	      4.14868      4.07125      2.11034         0.036933     -0.012255     -0.009022
O	      4.10313      2.04584      4.19136        -0.005663     -0.105258     -0.026475
O	      6.19121      4.15889      3.98612         0.097247     -0.011815      0.114911
O	      6.37568      2.05458      6.17731        -0.266031      0.078219      0.012656
O	      8.24065      3.94756      6.23684        -0.094257      0.231475      0.108952
O	      1.87799      4.10260      4.12530         0.534324     -0.030439      0.065707
O	      4.08810      6.22957      4.31535         0.081100     -0.339226      0.332179
O	      4.12014      4.24705      6.13440        -0.000362     -0.012160      0.065530
O	      6.02858      6.14696      6.29133         0.014794      0.080033      0.086101
O	      6.03565      4.13562      8.48436         0.078550      0.021677      0.059474
O	      8.17613      6.33473      8.26616        -0.070101     -0.319011     -0.011498
O	      2.13716      6.25823      6.31579         0.124527     -0.255826      0.009354
O	      4.04273      8.11326      6.15745         0.072808     -0.096691      0.090655
O	      4.15027      6.04561      8.20702         0.057659      0.203420      0.067622
O	      6.34651      8.27317      8.31936        -0.195133     -0.087449     -0.066807
O	      6.09442      6.01082     10.40799        -0.027995      0.447740     -0.141388
O	      8.37093      8.27191     10.51824        -0.152771      0.055684     -0.120346
