# total energy = -188.22424556 eV
 
CRYSTAL
PRIMVEC
0.050891 6.179144 6.213896 
6.136496 0.080634 6.183693 
4.128801 4.136818 0.016124 
PRIMCOORD
36 1
Li	      4.17226     10.22337      6.14817        -0.006615     -0.077124     -0.055015
Li	      4.18188      8.24824      8.17940        -0.033865      0.095665     -0.025324
Li	      8.17390      4.28080      8.25566         0.032053     -0.034882      0.014916
Li	      8.19449      6.26001      6.27211        -0.023207     -0.001915     -0.136021
Li	      6.16068      4.28668     10.38157        -0.040105      0.047526      0.085389
Li	      8.14570      6.27665     10.28608        -0.033974     -0.006400      0.060475
Li	      6.12620      8.25607      6.23786        -0.096684     -0.007208     -0.039188
Li	      4.17876      6.28819      6.24620         0.006729     -0.003038     -0.061042
Li	      6.25633      6.21672      8.29896         0.014385     -0.067407      0.053008
Mn	      4.09796      4.15542      4.15236         0.032355     -0.057039     -0.023589
Co	      2.10655      6.21139      8.21351        -0.176395     -0.098122      0.047565
Co	     10.27365      6.27684      8.27444        -1.129253      0.255808     -0.139214
Cu	      2.06740      2.12567      4.16582         0.049080      0.017079      0.182839
Cu	      8.25243      8.26976      8.32092        -0.054394      0.289683     -0.153490
Ni	      2.15146      8.25099      6.23615        -0.045276      0.044022     -0.073503
Ni	      4.20990      6.22654     10.35182        -0.084145      0.026299      0.079237
Ni	      6.20863      8.23425     10.31395         0.002109      0.108920      0.165207
Ni	      6.19448      4.19509      6.25345         0.103114      0.025683     -0.174733
O	      8.37991      6.32386      8.25190        -0.394467     -0.081252     -0.105252
O	      3.99968      8.26261      6.22845         0.337103     -0.041119      0.055633
O	      1.96216      1.97275      2.11373         0.800031     -0.085913      0.013448
O	      4.24963      4.25095      2.16738         0.183268     -1.077908      0.045415
O	      4.10655      2.19941      4.10960         0.070655      0.010104     -0.034952
O	      6.11039      4.14916      4.01115        -0.072943     -0.014728     -0.154024
O	      6.29240      2.25014      6.29480        -0.020965     -0.069528     -0.964035
O	      8.11106      4.07869      6.17117         0.171452      0.297412      0.230128
O	      2.23484      4.09113      4.15708         0.002875      0.256679     -0.006473
O	      4.18371      6.07953      4.00946         0.093931     -0.183034      1.070526
O	      4.28063      4.18820      6.03520        -0.196442     -0.057731     -0.007585
O	      6.20276      6.08809      6.13989         0.052328      0.132633      0.182774
O	      6.09835      4.05128      8.25971         0.050749      1.214705      0.153788
O	      2.08636      6.34298      6.42127         0.016647     -0.305429      0.050086
O	      3.96190      6.14227      8.34239        -0.002726     -0.192293     -0.222674
O	      6.26649      8.43322      8.26172         0.105499     -0.008746     -0.178164
O	      6.15721      6.31130     10.30997         0.231422     -0.244826     -0.062425
O	      8.20825      8.32695     10.40698         0.055669     -0.106577      0.126270
