# total energy = -187.44532505 eV
 
CRYSTAL
PRIMVEC
0.007016 6.109405 6.258119 
6.164437 0.013703 6.251365 
4.120520 4.079459 -0.001780 
PRIMCOORD
36 1
Li	      4.16822      8.14754      8.29835         0.018790     -0.076315      0.155480
Li	      6.18293      8.15567     10.43063        -0.023587      0.027721     -0.019186
Li	      6.15370      2.12185      8.25913         0.021305      0.041901     -0.006879
Li	      4.09717      2.11905      6.30981        -0.014928     -0.044820     -0.119574
Li	      6.12377      4.08794      6.36597         0.062859      0.013101      0.022434
Li	      6.16642      4.10229     10.38855        -0.071409      0.020334     -0.103594
Li	      6.24236      8.07652      6.32917         0.091007     -0.048705      0.082829
Li	      4.09590      4.05803      8.24003        -0.019714      0.097670     -0.004983
Li	      6.20967      6.12115      8.26829        -0.114686      0.025037     -0.035347
Mn	      6.17952     10.14454      8.34040         0.097946     -0.546703      0.273732
Co	      4.19222      6.16977     10.40205        -0.417901     -0.608299     -0.292174
Co	      8.20840      6.16153     10.33039        -0.245500      0.385282     -0.151733
Cu	      8.19958      2.06603      6.25794        -0.131377     -0.009441      0.109582
Cu	      8.16802      4.13336      8.31523         0.367165      0.007932      0.174045
Cu	      4.16638      6.08890      6.28674         0.147426     -0.001818      0.116959
Ni	      4.13078     10.16854      6.27927        -0.048560      0.050890      0.121321
Ni	      6.13022      6.15005      4.17808         0.260533     -0.107261     -0.189897
Ni	      4.12582      4.02461      4.19588         0.083643     -0.220506     -0.158026
O	      8.23078      6.10234      8.40747         0.035334     -0.160123      0.119952
O	      3.95853      8.16217      6.27383        -0.168158     -0.511200     -0.005689
O	      6.16944      8.29378      8.31213         0.019279      0.290260     -0.047224
O	      2.04986      1.96782      2.10607        -0.020729      0.171520     -0.131800
O	      4.17381      4.06247      2.09874         0.060116      0.029544      0.147828
O	      4.06477      1.90363      4.21565         0.061117      0.337065      0.024390
O	      6.18223      4.11954      3.98955         0.233326     -0.123848     -0.083049
O	      6.29740      1.94835      6.26459         0.332050      0.442105     -0.026289
O	      8.25971      4.01421      6.23388        -0.166666     -0.010774      0.473311
O	      2.11185      4.10989      4.09512        -0.186688      0.121796     -0.478970
O	      4.01891      6.07813      4.28997        -0.678248      0.211109     -0.184221
O	      4.14808      4.11174      6.16415        -0.062903      0.162306      0.243982
O	      6.07902      6.15091      6.14138        -0.111304      0.012185      0.382241
O	      6.29965      4.11165      8.34363        -0.283756     -0.019771      0.056309
O	      2.09548      6.16360      6.34728         0.153399      0.084881      0.045352
O	      4.00883      6.07840      8.34821        -0.186486      0.132538      0.090096
O	      6.21391      6.13773     10.53981         0.803426     -0.058416     -0.371947
O	      8.23481      8.23898     10.51115         0.103878     -0.117175     -0.229263
