# total energy = -189.58811495 eV
 
CRYSTAL
PRIMVEC
0.021590 6.124520 6.222579 
6.119811 0.042622 6.200821 
4.135826 4.125095 -0.027896 
PRIMCOORD
36 1
Li	      6.17004      6.16573     12.35539         0.059175     -0.027462      0.008418
Li	      2.06708      6.12039      8.25480         0.111868     -0.041251     -0.039067
Li	      4.18331      6.12638     10.33183         0.036206     -0.030776     -0.102261
Li	     10.13991      6.21265      8.25848         0.115280     -0.080880      0.047579
Li	      8.19948      6.20266      6.29073        -0.058118     -0.024097     -0.034577
Li	      8.14582      6.22692     10.28155         0.000951      0.029667      0.035159
Li	      2.06600      4.15417      6.26970        -0.066024      0.061981      0.090980
Li	      8.24203      8.10645      8.26434        -0.117113      0.155884      0.023305
Li	      6.22375      6.17259      8.34956        -0.131534      0.070693     -0.026402
Mn	      6.14882      4.10519      6.16409         0.167888      0.050607      0.226445
Co	      2.14026      8.17940      6.20438         0.061326      0.006136      0.239293
Co	      4.13407      8.17547      8.29501        -0.198856      0.088769     -0.143153
Cu	      6.18862      8.14680     10.29892        -0.007550     -0.089433     -0.244355
Cu	      8.15966      4.22028      8.24563         0.262051     -0.314449     -0.011394
Cu	      6.17697      6.16241      4.10204         0.132248     -0.014136     -0.219790
Cu	      4.07504      4.11517      4.13405        -0.045373      0.004357     -0.135115
Cu	      6.10911      4.18660     10.35503         0.183532     -0.075476     -0.053227
Ni	      4.11989      6.19284      6.22507         0.063896      0.115277      0.318389
O	      8.22921      6.13431      8.23459        -0.017136     -0.090541      0.000259
O	      4.10949      6.33140      8.14651         0.028243     -0.392489      0.111576
O	      5.99851      8.23440      8.39460         0.484340     -0.053523      0.254411
O	      6.14092      6.06569     10.37951         0.041033      0.558808     -0.003460
O	      8.37274      8.26613     10.49258        -0.436878     -0.010859     -0.053288
O	      2.19405      2.11322      2.00153        -0.412618      0.324764     -0.037295
O	      4.04370      3.99678      2.19247        -0.134575      0.295958      0.142351
O	      4.00263      2.01545      4.01081         0.004968      0.194809      0.223537
O	      6.19258      4.17004      4.20251        -0.127353     -0.134144     -0.153619
O	      6.28660      2.15566      6.02682        -0.042201     -0.009296     -0.070448
O	      8.09309      4.04753      6.24787        -0.029387      0.015744     -0.203709
O	      1.91967      4.04178      4.07466         0.246662     -0.043273      0.044896
O	      4.19935      6.31086      4.23530         0.020641     -0.363509     -0.217370
O	      4.20513      4.10657      6.09444         0.006188     -0.202024     -0.033410
O	      6.09783      6.04549      6.11274         0.172980     -0.063684      0.167654
O	      6.16831      4.09227      8.03669        -0.090830     -0.051740     -0.052391
O	      2.22122      6.30522      6.22695        -0.264330     -0.028076     -0.007775
O	      4.06170      8.25162      6.41125        -0.019602      0.167662     -0.092149
