# total energy = -189.70074943 eV
 
CRYSTAL
PRIMVEC
-0.042601 6.055698 6.334063 
6.063768 -0.047434 6.339063 
4.034550 4.032417 -0.023719 
PRIMCOORD
36 1
Li	      6.03365      6.00377     12.64720         0.008230     -0.008250     -0.007442
Li	      8.06193      8.00344     12.59292        -0.003792      0.006417     -0.044814
Li	      6.07079      1.99647      4.23695        -0.010129      0.053217     -0.008501
Li	      4.04376      3.99557      4.32608         0.021518     -0.028714      0.070568
Li	      5.99653      3.99669      6.31323         0.018992     -0.002403     -0.031665
Li	      2.02744      4.02029      6.35084        -0.036678     -0.015468      0.004469
Li	      3.99727      6.00333      6.35265         0.024471     -0.025891     -0.000052
Li	      4.01905      4.00872      8.36720        -0.006205     -0.040638     -0.034521
Li	      6.00332      6.04219      8.40012         0.025855      0.020761     -0.053880
Mn	      1.99349      6.00357      8.37907        -0.047690      0.019000      0.281984
Co	      4.02884      2.01901      6.33685        -0.046227     -0.009660     -0.029455
Co	      4.00097      8.08532      4.24963         0.117118     -0.035381      0.093427
Cu	      4.01458      8.06322      8.33789         0.015470      0.013249     -0.003695
Cu	      8.04957     10.02921     10.57562        -0.005387     -0.037455      0.054792
Cu	      6.03105      1.98642      8.39820         0.005676     -0.002933     -0.000574
Cu	      8.05766      4.00958      8.38831        -0.105738      0.103970     -0.086061
Cu	      6.04620      6.04290      4.28103        -0.119696      0.081872      0.054406
Cu	      1.96512      6.06653      4.32820         0.065800      0.024077      0.023924
O	      1.97970      6.06285      6.54848        -0.001598      0.012291     -0.226273
O	      3.99583      8.04030      6.05552        -0.016734     -0.023287     -0.116851
O	      3.90637      6.12195      8.43411         0.085801     -0.038907      0.045286
O	      5.92991      8.17203      8.47171         0.024929     -0.108530     -0.045417
O	      6.03766      5.87792     10.52815        -0.019872     -0.120770     -0.010742
O	      8.14884      7.99585     10.52663        -0.070937      0.025913     -0.000108
O	      2.03926      1.99811      2.18616         0.290013     -0.023036     -0.013708
O	      4.06287      3.99039      2.12461         0.053640     -0.181602     -0.038261
O	      3.98928      1.94020      4.42868         0.308292      0.090063      0.060960
O	      6.11697      4.06495      4.05807        -0.121432     -0.173569     -0.081141
O	      5.91602      1.98832      6.42640        -0.040616     -0.057604     -0.069325
O	      8.05504      4.12463      6.30366         0.041423     -0.050983      0.085549
O	      1.88952      4.07394      4.22819         0.019975      0.043321     -0.082532
O	      3.99347      6.15139      4.11990        -0.126869      0.172846     -0.051535
O	      4.03742      3.84844      6.33178        -0.017470      0.065429      0.048101
O	      6.17098      6.00782      6.23930         0.076371      0.001662      0.135101
O	      6.11690      3.95349      8.62187        -0.045905      0.228457      0.068677
O	      8.10242      5.95875      8.23686        -0.360599      0.022534      0.009311
