# total energy = -186.26250188 eV
 
CRYSTAL
PRIMVEC
0.017002 6.234276 6.212092 
5.950322 0.039461 6.189767 
3.992286 4.166062 0.001266 
PRIMCOORD
36 1
Li	      7.95303      8.33990     12.37889        -0.035345      0.037109     -0.003598
Li	      1.99439      0.03659      2.05582         0.063450     -0.064683      0.080906
Li	      7.94933      4.17238      4.16051         0.032078     -0.050866      0.048928
Li	      9.89552      6.27214      8.20701        -0.037328     -0.002530     -0.034984
Li	      7.96639      4.22824      8.26626         0.002037      0.061523     -0.003271
Li	      7.99652      6.28463      6.26061         0.045025      0.018508      0.042790
Li	      7.93799      6.33095     10.27468         0.026064      0.028274     -0.095904
Li	      2.02944      4.19235      6.20407         0.044547     -0.056559      0.036336
Li	      7.95045      8.28634      8.25313        -0.082563      0.025034     -0.029905
Mn	      9.90566      8.36975     10.32316        -0.214268      0.020662     -0.155530
Co	      0.02149      0.05075      0.06785        -0.155426      0.289432     -0.218701
Co	      3.95523      6.26100      6.18393         0.006739     -0.014805      0.057818
Ni	      6.03150      8.35399     10.36690         0.075459     -0.070826     -0.125247
Ni	      3.99289      8.31500      8.27794        -0.428758      0.485993      0.014308
Ni	      2.01633      2.06497      4.12895         0.119001     -0.049432     -0.057691
Ni	      3.94860      4.19406      4.13214        -0.006940      0.078475      0.092395
Ni	      6.00809      4.16872      6.24148        -0.044516     -0.067685      0.115414
Ni	      6.00612      6.27182      8.25309        -0.334461      0.090364     -0.125457
O	      7.83134      6.28614      8.25109         0.467013     -0.028568     -0.000985
O	      2.10917      2.05435      2.22483        -0.689522     -0.163939     -0.452222
O	      4.01045      4.02308      2.03690         0.164177      0.299730     -0.310483
O	      4.01065      2.16027      4.10863         0.022731     -0.126915     -0.102790
O	      5.95721      4.25462      4.18836         0.096608     -0.146696     -0.150436
O	      5.98696      2.14224      6.12959         0.044400     -0.325331      0.220334
O	      8.16236      4.19542      6.22289         0.711437      0.025550      0.024140
O	      1.93015      3.99946      4.14266        -0.041724      0.341892      0.037914
O	      3.99358      6.32036      4.21554        -0.301321      0.130003      0.010815
O	      3.99257      4.36271      6.14432        -0.273375      0.177020      0.109346
O	      5.85605      6.19951      6.12384        -0.036805      0.214989      0.292773
O	      5.95823      4.33707      8.33778         0.053903     -0.249231      0.283898
O	      1.88263      6.21929      6.23238        -0.364974     -0.088293      0.022987
O	      3.98078      8.21132      6.10074         0.000203     -0.069641      0.088153
O	      4.06836      6.37871      8.08934         0.016149     -0.570589     -0.112125
O	      5.89078      8.19908      8.35842         0.822675     -0.034480     -0.018558
O	      5.97581      6.15909     10.39927         0.019529     -0.125598      0.357792
O	      8.01371      8.38205     10.29342         0.214101     -0.017891      0.060839
