# total energy = -190.85430589 eV
 
CRYSTAL
PRIMVEC
-0.027920 6.237980 6.205701 
6.184560 0.025742 6.151921 
4.139695 4.139707 0.000434 
PRIMCOORD
36 1
Li	      4.13387     10.29627      6.16625         0.049318     -0.060718      0.015213
Li	      2.12470      8.26493      6.29298         0.090047     -0.065556      0.036720
Li	      2.07530      6.25570      8.23673         0.016152     -0.067815      0.067972
Li	      4.02597      8.31375      8.11880        -0.017940      0.102631      0.014136
Li	      8.26208     10.33473     10.27930        -0.030824      0.069571     -0.002790
Li	      0.06897      2.06554      2.02734        -0.091247     -0.082412      0.076886
Li	      4.08493      8.37838      4.25987         0.039003     -0.070385      0.082202
Li	      6.08051      8.33439      6.24178        -0.030257      0.050131     -0.000177
Li	      4.07010      6.35814      6.25023        -0.060893      0.001170     -0.121833
Mn	      4.13765      2.09578      6.16563        -0.005229      0.608617     -0.462928
Co	      4.09377      4.17992      4.07927         0.166135     -0.206152      0.848373
Co	      2.06550      6.21855      4.22513         0.524246     -0.117154      0.007524
Co	      4.12213      4.21260      8.26602        -0.196415      0.084411     -0.152860
Cu	      2.06761      4.09668      2.03119         0.506712     -0.086329      0.379986
Ni	      6.20109      8.32858     10.29298        -0.194546      0.109764      0.041903
Ni	      6.13399      6.23014      4.09452        -0.086417     -0.032618      0.161448
Ni	      6.19356      4.15294      6.16946        -0.128110     -0.000892     -0.122526
Ni	      6.12860      6.27447      8.21775        -0.052075      0.012960     -0.040129
O	      4.11764      8.30701      6.20197        -0.039526      0.011501      0.029087
O	      2.01822      2.13333      2.13981         0.078991      0.391489     -0.239637
O	      4.11160      4.12957      2.28025        -0.557278     -0.073075     -0.666036
O	      4.10167      2.21997      4.23354         0.004670     -0.356928      0.142105
O	      6.01619      4.18118      4.13514        -0.012510     -0.100223     -0.066260
O	      6.04898      2.11213      6.12333        -0.080974     -0.070026     -0.036011
O	      8.24793      4.31096      6.21330         0.059344     -0.132960      0.173622
O	      2.14697      4.23131      4.04612        -0.041886      0.190841     -0.320264
O	      3.99488      6.02851      4.15534        -0.365723      0.446114     -0.232106
O	      4.12102      4.04566      6.10475        -0.052590     -0.266740      0.621285
O	      6.32019      6.21227      6.13862         0.158825      0.069536      0.039808
O	      6.04961      4.21674      8.20347        -0.008743     -0.059405      0.043172
O	      8.24328      6.34871      8.16878         0.042549     -0.131451      0.011087
O	      2.03891      6.22995      6.00906        -0.052836      0.050934     -0.170069
O	      4.11634      6.08926      8.28907        -0.057003     -0.305032      0.042445
O	      6.35321      8.30700      8.28466         0.287976      0.074083      0.053275
O	      6.37910      6.30005     10.23748         0.072766     -0.011594      0.041224
O	      8.27037      8.17319     10.22665         0.066289      0.023710     -0.295847
