# total energy = -190.57212947 eV
 
CRYSTAL
PRIMVEC
-0.017945 6.357792 6.110636 
5.982998 -0.012620 6.106099 
3.997450 4.244689 -0.017911 
PRIMCOORD
36 1
Li	      5.98304      0.04779      6.13646         0.017913     -0.027827      0.067768
Li	      1.99985      6.38166      8.08419         0.058653     -0.105045     -0.001946
Li	      6.02246      2.07703      4.14516        -0.021256      0.050692     -0.192668
Li	      9.92876      6.36970      8.10302         0.037461      0.050284      0.036910
Li	      7.97817      4.17687      8.07498        -0.050269     -0.063489      0.011469
Li	      6.00945      4.22050      6.08606        -0.086117      0.020780      0.036477
Li	      5.97527      8.44488      6.08024        -0.036687     -0.073653      0.131395
Li	      3.95386      6.40118      6.14876         0.078320      0.009287      0.068238
Li	      5.97288      6.32902      8.11977        -0.071997      0.047477     -0.019981
Mn	      3.99524      4.16328      4.01314         0.010694      0.145658      0.087285
Co	      4.03793      8.47393      8.05480         0.015732     -0.098647     -0.126748
Co	      5.97078      4.34498     10.22742         0.004309      0.033507      0.006720
Co	      7.86061      8.43224      8.11485         1.008607     -0.088798      0.265657
Cu	      8.00979      6.29942      6.13609        -0.019550      0.194029      0.099021
Cu	      1.97308      6.37147      4.10854         0.066656     -0.053583     -0.025069
Ni	      1.92031      2.06575      0.02974         0.073552      0.075787      0.088511
Ni	      4.00424      0.09483      4.06093        -0.032483      0.063852     -0.192126
Ni	      5.96751      6.32324      4.02789        -0.133159     -0.037913     -0.137091
O	      1.96866      6.42393      5.96756         0.029459     -0.035585      0.125757
O	      6.09022      6.29992     10.20591        -0.048065     -0.063586      0.036414
O	      2.13818      2.11517      2.02577        -0.083960      0.032873     -0.021583
O	      4.00285      4.05818      2.12138         0.006194      0.044904     -0.024272
O	      4.03943      2.18621      3.83445         0.129847      0.021610      0.011078
O	      5.89696      4.38685      4.02911        -0.103607     -0.193242      0.019527
O	      5.91526      2.14111      6.15726        -0.147435     -0.023574     -0.019779
O	      7.98614      4.40979      6.03604         0.041106     -0.107069      0.072237
O	      1.95853      3.99013      4.05168         0.042602      0.261044     -0.036958
O	      3.87755      6.10702      4.08458        -0.058725     -0.119954     -0.002308
O	      4.00160      3.98846      6.07027        -0.065695     -0.045659     -0.084743
O	      6.12693      6.31134      5.96885         0.002112     -0.043254      0.174665
O	      5.79160      4.22473      8.38768        -0.300416     -0.030721     -0.045423
O	      7.93989      6.45480      8.35456        -0.060336      0.269431     -0.159770
O	      3.90029      8.46079      6.04298         0.157262      0.054685     -0.105042
O	      4.03227      6.52835      8.17044        -0.047184     -0.117507      0.033890
O	      6.05231      8.55202      8.09739        -0.300686      0.134058     -0.007237
O	      8.04282      8.71284     10.20739        -0.112853     -0.180853     -0.170277
