# total energy = -191.11121601 eV
 
CRYSTAL
PRIMVEC
0.057646 6.104141 6.375256 
6.116252 0.059572 6.376401 
4.098842 4.092065 0.017391 
PRIMCOORD
36 1
Li	      8.12761      2.14323      6.42348         0.063545     -0.072879     -0.121473
Li	      4.08366      2.08580      2.21010         0.091047     -0.108282     -0.082827
Li	      6.08575      2.07366      4.22973         0.136054     -0.094851      0.012424
Li	      2.06652      4.04606      2.12881        -0.038091      0.003021      0.082853
Li	      2.11494      2.07995      4.26490        -0.134861      0.111997      0.052946
Li	      4.03877      2.04926      6.27737         0.094889     -0.004185     -0.029279
Li	      0.08194      4.09064      4.23848        -0.036541      0.043150      0.120374
Li	      6.20808      8.14043      6.39851        -0.071810      0.054771     -0.073524
Li	      6.20446      6.21873      8.46368        -0.029462      0.107626      0.057104
Mn	      2.08867      6.12349      8.48049         0.371552     -0.331031     -0.004771
Co	      6.14559      4.10974      6.41755        -0.086140     -0.188386     -0.053549
Co	      8.19917      6.17137     10.62360         0.257592     -0.214190      0.009306
Co	      4.15232      6.26683      6.38674        -0.119493     -1.071391     -0.130093
Cu	      6.18154      6.11819     12.68797         0.010220      0.026718     -0.503439
Cu	     10.20882      6.15533      8.49327        -0.116914      0.066613      0.312130
Cu	      4.08530      4.03046      4.29230        -0.339147      0.330776      0.110114
Ni	      4.07664      0.08145      4.27106         0.226251     -0.269468     -0.089080
Ni	      4.14841      4.11855      8.52806        -0.193512     -0.026623      0.285254
O	      8.29631      6.14575      8.69993         0.205467     -0.146704     -0.094319
O	      4.15826      8.03740      6.35942         0.064337      0.012003      0.003775
O	      6.27824      6.13457     10.74430        -0.411858      0.090097      0.304789
O	      1.89017      1.93539      2.13502        -0.104275      0.148807     -0.016834
O	      4.18808      4.07451      1.88479        -0.293825      0.308600     -0.091048
O	      4.07241      2.15609      4.22095        -0.051049      0.263928      0.016318
O	      6.02682      4.10610      4.44931        -0.153008     -0.018284      0.001959
O	      6.06474      2.25214      6.44180        -0.030693      0.094749     -0.197316
O	      8.03143      4.12425      6.25953         0.021069      0.099891      0.265454
O	      2.18669      4.19525      4.26298         0.368696     -0.340316      0.015347
O	      4.00943      5.97489      4.31767         0.360179     -0.012156      0.723819
O	      4.21620      4.24731      6.61791         0.139800      0.440970     -0.230080
O	      6.10051      6.02801      6.42752        -0.856461      0.234174      0.000301
O	      6.08381      4.08059      8.38538         0.381633     -0.355127     -0.004186
O	      2.18201      6.14593      6.20978         0.631865      0.038756      0.110712
O	      4.04215      6.19730      8.60157        -0.069824      0.254884     -0.700256
O	      6.33538      8.30463      8.50545        -0.349973      0.059127     -0.039628
O	      8.26001      8.08600     10.46114         0.062738      0.463220     -0.023275
