# total energy = -92.89827152 eV
 
CRYSTAL
PRIMVEC
0.000204 2.042895 2.041163 
6.128223 6.189260 -4.142079 
-4.093059 2.071553 -2.070158 
PRIMCOORD
16 1
Li	     -2.02996      4.08581     -2.06063        -0.072627      0.041311     -0.065571
Li	      2.05390      6.05748     -4.03136         0.036783      0.100149     -0.140660
Li	     -0.00610      4.06935     -0.02804         0.010818     -0.047768      0.065154
Li	      4.00835      6.19016     -2.13673         0.146804      0.015606      0.022288
Mn	     -4.04659      2.05133     -2.04658        -1.140245     -0.535045      0.135428
Mn	     -0.01040      6.11902     -2.07237        -0.426630      0.291804     -0.033253
Ni	      4.03387      8.16073     -4.10903         0.355130      0.150938     -0.002705
Ni	      2.02790      4.08581     -2.06102         0.296352     -0.255286      0.012263
O	      4.17095      6.13895     -4.10806         0.506178     -0.096901     -0.028308
O	      0.00511      6.00908     -3.98464         0.089694      0.194567     -0.351651
O	      2.00538      8.28866     -4.23485         0.032459      0.560399     -0.349041
O	     -2.15919      4.04217      0.00314        -0.034877      0.090009      0.006014
O	     -0.00538      4.18935     -2.16370        -0.404507     -0.333353      0.192872
O	      1.89125      6.10773     -2.06143         0.332718      0.321928     -0.142005
O	     -0.00030      1.93013      0.09432         0.148927     -0.199198      0.221948
O	      2.15469      4.09969     -0.05246         0.123023     -0.299161      0.457229
