# total energy = -191.87235199 eV
 
CRYSTAL
PRIMVEC
0.023932 6.016855 6.332515 
6.162403 -0.001913 6.358134 
4.112165 4.033249 -0.005471 
PRIMCOORD
36 1
Li	      8.24992      8.05564     12.61605        -0.023905     -0.007673     -0.059671
Li	      8.20421      3.98922      4.31602         0.045958     -0.053730      0.033007
Li	      6.20603      2.07068      8.49275        -0.000335     -0.006738      0.046119
Li	      8.18722      4.01931      8.44000        -0.055927      0.043863      0.156795
Li	      4.15183      4.03801      4.24351        -0.171891      0.033878      0.002764
Li	      6.19845      3.98009      6.38484         0.021076     -0.007183      0.076430
Li	      6.15425      4.01230     10.51849         0.095251     -0.028261     -0.059770
Li	      2.04894      4.03615      6.30058         0.007116     -0.009332     -0.167515
Li	      4.17189      3.97604      8.46800        -0.000673     -0.091161      0.055705
Mn	      6.16560      5.93081      8.40994         0.450351      0.152331      0.077428
Co	      6.17359      4.02281      2.13922        -0.080664      0.037631     -0.081672
Co	      4.14800      2.05340      6.33307        -0.224906      0.079554      0.136186
Co	      2.11695      5.96723      4.19551        -0.070747      0.728952     -0.343443
Cu	      4.11121      4.04770      0.03464         0.145331     -0.020722      0.016771
Cu	      4.07212      2.08188      2.13057         0.046579      0.010266      0.030733
Cu	      6.17761      8.03636     10.54467         0.175226     -0.023270     -0.110202
Cu	      6.15600      6.06813      4.25772         0.049551      0.071272      0.027520
Cu	      4.09937      6.00211      6.32065        -0.027237     -0.067393     -0.268441
O	      2.00693      6.02544      6.48604        -0.094412      0.024447      0.236002
O	      4.08503      8.17187      6.48037        -0.022423      0.055100     -0.006227
O	      4.14634      6.06551      8.27871        -0.129351     -0.065109      0.017715
O	      6.17305      6.03819     10.31542         0.081950     -0.006374      0.062800
O	      8.17458      7.84242     10.57057        -0.013811     -0.119306      0.110766
O	      2.10795      1.88630      2.27663        -0.058396      0.001403     -0.082945
O	      4.30100      4.02682      2.22698         0.084911      0.114268     -0.103542
O	      4.07479      2.00079      4.23583         0.058088     -0.009832      0.078512
O	      6.23701      3.95957      4.04639         0.026169      0.120350      0.154179
O	      6.14640      1.93719      6.22080         0.000951     -0.087566      0.027277
O	      8.33472      4.17942      6.34349         0.049088      0.010208     -0.040939
O	      2.06339      4.17085      4.23217        -0.043958     -0.546343      0.055640
O	      4.13058      6.07667      4.38494        -0.200068     -0.107985      0.223681
O	      4.13864      3.83497      6.34709         0.046173      0.028209     -0.018858
O	      6.21143      6.01732      6.38552        -0.011146     -0.040143     -0.007757
O	      6.16078      4.12981      8.43056        -0.091488     -0.213102     -0.085337
O	      8.07084      6.02225      8.43175        -0.128823      0.019824     -0.184608
O	      6.09875      8.05879      8.52210         0.066391     -0.020335     -0.005105
