# total energy = -189.40847463 eV
 
CRYSTAL
PRIMVEC
0.001874 6.088822 6.214111 
6.166143 -0.009065 6.226068 
4.115302 4.071814 -0.010828 
PRIMCOORD
36 1
Li	      6.09972      0.02657      6.16301        -0.032098      0.060903      0.043997
Li	      6.10456      2.04909      4.13092        -0.077887      0.024461      0.125574
Li	      8.18333      4.08438      8.19937        -0.070122     -0.031129     -0.027677
Li	      4.19075      3.99074      4.23437         0.101959      0.001308     -0.002155
Li	      4.12359      2.09189      6.14081         0.063460     -0.005743      0.038355
Li	      6.17931      4.06650      6.27410         0.004140     -0.044524      0.079165
Li	      2.12318      4.03070      6.21973        -0.046131     -0.071283      0.076300
Li	      8.21510      8.07242      8.23182         0.147306     -0.002915     -0.048516
Li	      6.23988      6.10438      8.24637         0.005835     -0.091572     -0.056021
Mn	      4.13222      6.02331      6.24938         0.226263      0.011773      0.281169
Co	      6.16769      4.05059      2.09142        -0.900527     -0.819948      0.298009
Co	      6.10422      2.01711      8.20412         0.381101     -0.494127      0.210266
Co	      8.19434      6.06289     10.32665        -0.302486     -0.313235     -0.166067
Ni	      8.19037      2.05362      6.20177        -0.040661      0.092395      0.313724
Ni	      4.12668      2.10127      2.09622        -0.287383      0.171234     -0.168924
Ni	      4.14475      0.01538      4.17253         0.274891     -0.056572     -0.043116
Ni	      2.10127      2.05990      4.20188        -0.165111     -0.003777     -0.030227
Ni	      6.16705      4.06140     10.37073        -0.331162     -0.287986     -0.355074
O	      2.05439      1.90164      2.09967        -0.688513      0.852126     -0.036186
O	      4.25834      4.20554      2.11513        -0.385849     -0.021124     -0.522293
O	      4.09246      2.01233      4.10662         0.115936      0.119079      0.235758
O	      6.24898      4.09522      3.92968         0.143667      0.021337      0.947705
O	      6.29353      2.03629      6.27054        -0.324088     -0.052547      0.601047
O	      8.22159      3.92531      6.15810         0.018134      0.183587      0.057127
O	      1.85710      4.14121      4.19100         0.672592     -0.069171      0.198766
O	      4.01004      6.11607      4.30390         0.531897     -0.460978     -0.276834
O	      4.11322      4.18558      6.22502        -0.128230      0.034668     -0.005759
O	      6.00953      6.10972      6.21980        -0.079838      0.011997      0.057269
O	      6.19646      3.79664      8.39933        -0.126447      0.694065     -0.099036
O	      8.32862      6.02986      8.44915         0.388880      0.309060     -0.918750
O	      2.12116      6.19999      6.25256         0.190303     -0.177455     -0.137537
O	      3.96830      8.05193      6.22467         0.228636     -0.077787     -0.085044
O	      4.01357      6.10584      8.21457         0.762941      0.059747     -0.466728
O	      6.09578      8.34298      8.23849         0.514442     -0.586540     -0.083211
O	      6.26213      6.01368     10.27652        -0.502014      0.765289      0.090811
O	      8.37109      8.02312     10.36133        -0.283836      0.255384     -0.125885
