# total energy = -181.77635336 eV
 
CRYSTAL
PRIMVEC
0.019450 6.156636 6.166101 
6.156116 0.021762 6.163665 
4.117980 4.116651 0.000756 
PRIMCOORD
36 1
Li	      4.20567      4.13134      0.10733         0.039413      0.014079      0.051620
Li	      1.99556      0.03155      2.00407        -0.011015      0.031486      0.066405
Li	      4.10399      6.08034      2.08541         0.057840     -0.069582      0.012437
Li	      2.07870      4.14863      2.13985         0.014348     -0.066622      0.010609
Li	      1.99792      2.12531      4.07979         0.049306     -0.000354     -0.060238
Li	      4.03583      4.19409      4.07103        -0.012383      0.007883      0.026310
Li	      2.15179      6.07353      4.08604        -0.033395      0.046421      0.002301
Li	      2.06457      4.17661      6.10035         0.001070      0.023719     -0.042055
Li	      4.12427      4.04868      8.14799        -0.046624      0.044905     -0.028302
Mn	      4.09637      2.12010      2.04938        -0.138185      0.261475     -0.032022
Cu	      6.19661      6.15299      8.20117        -0.001232      0.050215      0.015629
Ni	      2.07311      2.06987      0.04799        -0.106148      0.071978     -0.062929
Ni	      8.22137     10.25961     10.27459        -0.046198     -0.018086     -0.019149
Ni	      6.20261      8.19825     10.27771         0.059299      0.001311      0.073780
Ni	      8.22151      6.20254      6.19660         0.031642     -0.082027     -0.193487
Ni	      6.16109      4.09782      6.17000         0.110030     -0.063525     -0.039979
Ni	      0.04073      4.09509      4.09578        -0.129369      0.002264      0.041490
Ni	      4.12855      6.17775      6.13337         0.001212     -0.096101     -0.079534
O	      8.12955      6.20924      8.17138        -0.149631      0.002329      0.213866
O	      2.19328      2.05180      1.95826         0.069069     -0.047956      0.249588
O	      4.14482      3.96551      2.12459         0.051202     -0.106829     -0.019791
O	      4.11226      1.90018      4.03792        -0.083443      0.183028     -0.125705
O	      6.32454      4.06176      4.22177        -0.177842      0.083789     -0.250818
O	      6.14436      2.08131      6.12820        -0.023513     -0.237113      0.164978
O	      8.07362      4.09018      6.15908         0.102184      0.016740      0.131471
O	      1.89857      4.12073      4.13633         0.287528      0.005454     -0.002729
O	      4.13955      6.31037      4.19763         0.002855     -0.143608     -0.174418
O	      4.27523      4.11299      6.06441        -0.268977     -0.013769      0.070269
O	      6.15920      6.10726      6.22203         0.006265      0.267493     -0.001132
O	      6.12840      4.19335      8.14287        -0.039186      0.171563      0.167995
O	      2.19654      6.31801      6.14653        -0.172800     -0.159118      0.045717
O	      4.14469      8.25471      6.27931         0.100151      0.116368      0.118207
O	      4.17053      6.26646      8.15201         0.173928     -0.065914     -0.031920
O	      6.08216      8.15098      8.26842         0.054068     -0.147395     -0.162144
O	      6.01728      6.09855     10.21075         0.202140      0.066886     -0.013482
O	      8.30219      8.35316     10.40200         0.026391     -0.151386     -0.122839
