# total energy = -182.73338129 eV
 
CRYSTAL
PRIMVEC
0.012321 6.134268 6.192837 
6.145123 0.005306 6.199817 
4.097125 4.094542 0.003247 
PRIMCOORD
36 1
Li	      6.17520      6.11507     12.33412         0.006272      0.030736      0.003346
Li	      4.12633      8.12461      8.27923        -0.047275     -0.063345      0.060076
Li	      4.14672      6.13838     10.27944        -0.025299     -0.023037     -0.041348
Li	      6.12454      6.16974      4.17737        -0.010506      0.019977      0.030884
Li	      4.11248      4.08724      4.14742        -0.005492     -0.031973      0.011609
Li	      2.04200      6.13285      4.16026         0.030784      0.001062     -0.000534
Li	      4.07494      6.16279      6.20490         0.031449     -0.032201      0.076262
Li	      4.09544      4.12688      8.25615        -0.032592      0.029942     -0.016865
Li	      6.07357      6.17531      8.29564        -0.123391      0.046616     -0.087917
Mn	      6.19744     10.22017      8.30404         0.215544      0.102490     -0.338149
Cu	      6.17133      8.11629     10.29949         0.108911      0.079546     -0.013311
Cu	      8.18931      6.13593      6.18671         0.461824     -0.277674      0.132801
Cu	      6.14030      4.13205     10.30797        -0.147780     -0.147648      0.054466
Ni	      2.11867      8.14761      6.16817        -0.310102      0.139068      0.245471
Ni	      4.10298      6.13748      2.08953         0.164260     -0.088708     -0.140328
Ni	      2.08586      4.09421      2.11120         0.205083     -0.130066      0.129141
Ni	      6.10700      4.14451      6.14944        -0.002576      0.150484      0.012900
Ni	      2.05458      4.08823      6.16023        -0.056868      0.020210      0.101745
O	      8.33539      6.10668      8.11248        -0.297611      0.239583     -0.249594
O	      6.17944      6.13730     10.27203        -0.004933     -0.100968      0.015880
O	      8.17934      8.17173     10.43411         0.004168      0.008504     -0.306930
O	      1.99324      1.98278      1.98608         0.172728     -0.099039      0.148667
O	      4.15778      4.25659      2.09932         0.131860     -0.137076      0.046635
O	      4.20557      2.01081      4.29427        -0.019199      0.025099      0.119380
O	      6.15230      4.02444      4.04556        -0.010541     -0.137977      0.122710
O	      6.18590      2.10892      6.23493         0.055638     -0.039144     -0.167633
O	      8.12599      4.13208      6.31553         0.005460      0.117224     -0.361354
O	      1.97477      4.10758      4.11835         0.005211      0.041703      0.066491
O	      4.07629      6.22723      4.01106        -0.012813      0.203828      0.339438
O	      4.07623      3.98229      6.19101         0.221592      0.089033     -0.061709
O	      6.23056      6.16082      6.22974        -0.543616     -0.143942      0.005346
O	      6.18459      3.94138      8.30532        -0.175058      0.169433      0.240482
O	      2.06475      6.10868      6.36252        -0.066850     -0.128721      0.102078
O	      4.10257      8.18660      6.06194         0.224366      0.041698     -0.321744
O	      3.95836      6.15501      8.25781        -0.129522      0.034538      0.008075
O	      6.10377      8.31404      8.25990        -0.023126     -0.009255      0.033532
