# total energy = -182.70588584 eV
 
CRYSTAL
PRIMVEC
-0.000312 6.102867 6.267114 
6.153278 -0.040331 6.306995 
4.066877 4.059931 0.008308 
PRIMCOORD
36 1
Li	      2.07420      6.11292      8.34968         0.004084      0.031280     -0.034392
Li	      4.05702      2.02087      2.17247        -0.045537      0.025046      0.034942
Li	      4.11511      6.07443     10.45315        -0.004480     -0.012960     -0.005411
Li	      6.07792      2.03049      4.18745        -0.000064      0.005508     -0.005682
Li	      6.14668      6.08498      4.24038         0.001958     -0.002938      0.040915
Li	      4.03701      2.06130      6.20870        -0.065702      0.047702     -0.056029
Li	      2.05147      6.09445      4.22199         0.005951      0.008174      0.049808
Li	      2.07356      4.04786      6.24997         0.019362     -0.030573      0.032105
Li	      4.08643      6.07637      6.30179         0.024879     -0.018954      0.013884
Mn	      6.13173      6.08884      8.42185        -0.264636      0.418753     -0.333878
Cu	      6.17179      6.07259     12.54512        -0.020028     -0.020383     -0.085748
Cu	      4.05715      4.05312      4.21561         0.021912      0.084391     -0.028397
Cu	      6.11590      4.07666      6.23411         0.151864     -0.255089      0.184467
Cu	      8.13614      8.10762      8.39415        -0.224570      0.049425      0.023436
Ni	      2.03953      8.12290      6.25601         0.168223     -0.142820     -0.074901
Ni	      4.08213      6.05835      2.10391         0.045267     -0.012280      0.148279
Ni	      2.09013      4.02017      2.10460        -0.231298      0.225654      0.149554
Ni	      4.08283      8.07651      4.25062         0.059409     -0.010858     -0.119087
O	      1.96432      6.25835      6.28427         0.049782     -0.089023     -0.055613
O	      3.92863      8.19640      6.23378         0.039328     -0.036371      0.160027
O	      6.20048      7.97515      8.35841        -0.069629     -0.112514      0.107995
O	      8.25542      8.08214     10.64684        -0.198690     -0.021978     -0.170827
O	      2.01785      2.06046      1.88059         0.082004     -0.272611      0.123567
O	      4.06001      4.06658      1.98562         0.182787     -0.014789      0.134764
O	      4.07033      2.19296      4.20592         0.004955     -0.169342     -0.026622
O	      5.97509      4.06543      4.31428        -0.067366     -0.013514     -0.319177
O	      6.30731      1.98703      6.33364        -0.258002      0.127680     -0.170273
O	      8.17004      3.88682      6.31605         0.046263      0.296885     -0.048496
O	      2.09792      4.04063      4.15678         0.237179      0.052685     -0.139778
O	      4.09447      6.01041      4.11781        -0.032749     -0.140755     -0.016715
O	      4.16729      4.05002      6.34644        -0.110200     -0.020351      0.033987
O	      6.12678      6.00520      6.47393         0.032074      0.195052      0.284831
O	      6.09959      4.09441      8.39293         0.203743     -0.199604      0.026179
O	      8.09661      6.11304      8.37416         0.094797     -0.082386      0.024306
O	      4.20254      5.99540      8.42928         0.108442      0.014535      0.049559
O	      6.15544      5.99711     10.37019         0.008689      0.097323      0.068424
