# total energy = -183.01354530 eV
 
CRYSTAL
PRIMVEC
-0.007794 6.165267 6.172980 
6.129425 0.001032 6.164087 
4.110079 4.128035 -0.023073 
PRIMCOORD
36 1
Li	      2.02891      2.06781      0.03121        -0.078350      0.055466      0.083799
Li	      4.06057      2.07734      2.06733        -0.105227      0.004650      0.049836
Li	      6.11616      2.07871      4.11921        -0.006480     -0.009613      0.087830
Li	      0.02732      2.06463      2.06190         0.116497     -0.034578     -0.047204
Li	      2.03009      4.09336      2.04812        -0.025071     -0.077259     -0.053341
Li	      2.03486      2.05349      4.07915         0.007952      0.001867     -0.112741
Li	      6.17035      4.11935      6.15363         0.071798     -0.019809     -0.052184
Li	      8.18016      6.16133     10.24683        -0.074200      0.034393     -0.049245
Li	      6.16854      6.15833      8.19981         0.038506      0.002458      0.063574
Mn	      8.22568      8.19874      8.22902        -0.295823      0.224440      0.012694
Cu	      2.02783      0.05286      2.07304         0.113745     -0.030981      0.085069
Cu	      4.10128      4.13012      4.02411        -0.209190      0.037750      0.086238
Cu	      8.19685      6.16196      6.13968        -0.094619      0.135862      0.033298
Cu	      0.02664      4.09039      4.08548         0.012131     -0.140925     -0.152271
Cu	      6.14179      8.22031      6.13182         0.190763      0.027916      0.124935
Cu	      6.12067      0.02431      6.17523        -0.025034      0.040738      0.296471
Ni	      4.06584      0.03783      4.11225         0.007893     -0.050892     -0.048780
Ni	      4.11881      6.19463      6.13723        -0.053485     -0.126862      0.259335
O	      2.01129      6.11276      6.25257         0.047562     -0.005013      0.022370
O	      4.17485      8.26487      6.06171        -0.147107     -0.085158     -0.293687
O	      6.25626      8.30500      8.15249         0.024664      0.183373      0.060273
O	      6.08511      6.09543     10.37013         0.175201      0.010936     -0.122435
O	      8.23410      8.25510     10.12740        -0.305531     -0.144510     -0.078076
O	      2.07911      1.95855      2.00897         0.021088     -0.120511      0.038287
O	      4.16487      4.10207      2.02324        -0.236027      0.029336     -0.431394
O	      4.09418      2.10345      4.20729        -0.084689      0.118912      0.234088
O	      6.11313      4.11936      4.01800        -0.063836      0.042904     -0.042426
O	      6.04106      1.96017      6.15901         0.073956      0.260770     -0.015775
O	      8.25864      4.19881      6.12168        -0.408511     -0.578831      0.239767
O	      2.05580      4.13138      4.17233         0.325703     -0.013779     -0.228010
O	      4.07871      6.15324      4.17598         0.003399      0.077408     -0.167611
O	      4.05189      4.09422      6.25086         0.235255      0.335353      0.218488
O	      6.15832      6.25507      6.17662         0.278438     -0.067041      0.015182
O	      6.00089      4.13035      8.28287         0.227845     -0.046408      0.091216
O	      8.16865      6.32434      8.12578         0.015960     -0.116662     -0.121197
O	      4.03041      6.05953      8.20151         0.224826      0.044301     -0.086373
