# total energy = -182.79893755 eV
 
CRYSTAL
PRIMVEC
-0.010975 6.151755 6.262429 
6.224097 0.007865 6.243729 
4.153325 4.092474 0.001299 
PRIMCOORD
36 1
Li	      8.28964      2.09750      6.28367        -0.161407      0.145226      0.124358
Li	      4.09423      2.08722      2.09204        -0.117817      0.074693      0.097553
Li	      0.05021      2.06705      2.08483         0.100949     -0.073527      0.008723
Li	      2.05191      4.04183      2.09498         0.044795     -0.121055     -0.003790
Li	      2.08998      2.08508      4.12838        -0.054630      0.063883     -0.063454
Li	      4.11473      4.09310      4.16526        -0.083941      0.065399     -0.042728
Li	      4.17828      2.04452      6.20651         0.082676     -0.104082     -0.077567
Li	      6.22620      4.07817      6.29174         0.092117     -0.074026      0.025689
Li	      0.02223      4.06459      4.16060         0.191896     -0.101858     -0.048313
Mn	      2.04170      0.06386      2.09117        -0.335658      0.445683      0.140024
Cu	      8.28507      4.12595      4.22297        -0.157926     -0.050701      0.082312
Cu	      2.05938      4.08480      6.20093         0.276162     -0.252214     -0.115375
Cu	      4.16517      6.17379      6.19988        -0.015886      0.064812     -0.009434
Cu	      4.17975      4.08797      8.33070         0.706945     -0.520217     -0.361343
Cu	      6.24708      6.12178      8.29461         0.170055     -0.367518      0.006335
Cu	     10.30970      4.11727      6.29011         0.136880     -0.274374      0.102039
Cu	      6.19051      2.05919      4.20543        -0.292848      0.479860      0.104759
Cu	      2.13972      6.12534      4.15900        -0.156465     -0.096200     -0.190534
O	      8.23574      6.20071      8.43754        -0.075500      0.215798     -0.102378
O	      4.23881      8.18528      6.25881        -0.017652      0.367496      0.009693
O	      6.28673      8.21991      8.32825        -0.085568      0.052834      0.138327
O	      6.16085      6.23398     10.45844         0.637702     -0.478215     -0.286389
O	      8.21384      8.18004     10.35044        -0.164250      0.076661     -0.114601
O	      2.08221      1.89387      2.09342         0.079345     -0.050615      0.000102
O	      4.30771      4.09456      2.03897         0.181892     -0.115135     -0.160737
O	      4.22919      1.97915      4.16951         0.282968      0.082103     -0.166290
O	      6.26961      4.04410      4.02270        -0.107098     -0.131501     -0.206516
O	      6.22206      1.97986      6.16502         0.091081      0.102384     -0.006889
O	      8.36289      4.08793      6.18125        -0.086010     -0.166307      0.069787
O	      2.08282      4.18837      4.23573        -0.028491      0.156111     -0.103701
O	      4.08676      6.14195      4.25828        -0.187626      0.170042      0.121114
O	      4.08288      4.17047      6.32763        -0.446008     -0.008663      0.377044
O	      6.13145      6.22260      6.25794         0.144392      0.019399      0.333221
O	      6.14966      4.19665      8.32176        -0.218803      0.063329      0.013348
O	      2.07485      6.10550      6.34050        -0.169237      0.186831      0.291568
O	      4.06801      6.09950      8.35101        -0.257034      0.153663      0.014041
