# total energy = -192.56439489 eV
 
CRYSTAL
PRIMVEC
0.002623 6.067841 6.184787 
6.184481 -0.003995 6.191520 
4.125290 4.052362 -0.005032 
PRIMCOORD
36 1
Li	      2.06302      1.99673      0.05105        -0.068479      0.018968      0.063733
Li	      6.12361      4.05795      2.03309        -0.042485      0.033951     -0.062942
Li	      4.09803      2.07299      2.05330        -0.069109      0.075205      0.052938
Li	      2.11548      4.03084      2.08464         0.026097     -0.051035     -0.064955
Li	      4.10863      4.04538      4.03350         0.042741     -0.034052     -0.030558
Li	      6.19179      4.04176      6.17841        -0.057778     -0.030057      0.014344
Li	      2.11387      6.04616      4.14741        -0.021054     -0.048543      0.046120
Li	      2.05263      4.06697      6.16037         0.149685      0.082431      0.038973
Li	      4.10940      4.04597      8.23893        -0.008399      0.038721     -0.089350
Cr	      8.24088     10.09179     10.31564         0.162889     -0.062842      0.066064
Cr	      6.25933      6.08558      8.23193        -0.056511      0.122604      0.149414
Co	      4.03663      6.04851      6.19894        -0.382738     -1.151892      0.395339
Cu	      4.16055      8.05491      4.12981        -0.219476      0.127006     -0.188605
Ni	      4.18710     10.08456      6.23249        -0.109899     -0.007270      0.163602
Ni	      6.18860      2.06747      4.14983        -0.013274      0.036755      0.095251
Ni	      6.18672      2.02116      8.22208        -0.118779      0.020054     -0.006726
Ni	      2.05417      2.01740      4.08987         0.014692     -0.023375     -0.664385
Ni	      4.11657      2.08479      6.18207        -0.032291      0.060843      0.087454
O	      4.10242      7.92415      6.11207         0.159548      0.036824     -0.063968
O	      1.98241      2.04504      2.17447         0.307193     -0.082418     -0.087163
O	      4.11531      4.10710      1.99514        -0.055794     -0.150420      0.300493
O	      4.14265      1.95283      4.16415        -0.111840     -0.061355     -0.305461
O	      6.32350      4.09939      4.11118        -0.182853     -0.013355      0.146032
O	      6.13762      2.01081      6.16635         0.274504      0.179503     -0.208614
O	      8.33852      4.08084      5.99978        -0.263479     -0.140903     -0.079291
O	      1.98372      3.90344      4.12117        -0.047989      0.328257      0.273036
O	      4.13228      6.10808      4.11339         0.077530      0.029204     -0.168517
O	      4.11028      4.19870      6.17921         0.030440      0.793646     -0.141280
O	      6.12901      6.06522      6.25944        -0.161363      0.033791      0.058391
O	      6.15767      4.13556      8.32652         0.071405     -0.060547      0.128939
O	      8.14525      6.08010      8.17671        -0.111178     -0.035017      0.343284
O	      2.12493      6.05116      6.18572         0.458287      0.020779     -0.041269
O	      4.27606      6.09647      8.35444         0.090483      0.001384      0.028530
O	      6.18444      7.93507      8.36045         0.026314     -0.005660     -0.044983
O	      6.16417      6.02453     10.28546         0.073845     -0.100788     -0.193221
O	      8.23162      8.22628     10.29862         0.169116      0.019599     -0.010649
