# total energy = -93.03303887 eV
 
CRYSTAL
PRIMVEC
0.000205 2.053213 2.051472 
6.159174 6.220518 -4.162999 
-4.113731 2.082016 -2.080614 
PRIMCOORD
16 1
Li	     -2.05051      4.12719     -2.08150        -0.036019      0.022409     -0.029931
Li	      2.07470      6.11882     -4.07218         0.014293      0.048615     -0.068910
Li	     -0.00617      4.11055     -0.02833         0.005987     -0.022309      0.032804
Li	      4.04893      6.25284     -2.15836         0.076241      0.010369      0.003798
Mn	     -4.08757      2.07211     -2.06730        -0.582038     -0.279560      0.070465
Mn	     -0.01050      6.18099     -2.09336        -0.207993      0.140658     -0.024043
Ni	      4.07472      8.24337     -4.15064         0.166209      0.069228     -0.003643
Ni	      2.04843      4.12718     -2.08189         0.144660     -0.124389      0.016068
O	      4.21319      6.20112     -4.14966         0.294770     -0.085069      0.033075
O	      0.00516      6.06993     -4.02499         0.108030      0.074032     -0.148156
O	      2.02568      8.37259     -4.27773        -0.038526      0.306445     -0.192854
O	     -2.18105      4.08311      0.00317        -0.059122      0.108952     -0.055234
O	     -0.00544      4.23178     -2.18561        -0.248284     -0.145985      0.086813
O	      1.91041      6.16957     -2.08230         0.139275      0.199679     -0.117554
O	     -0.00031      1.94967      0.09528         0.129391     -0.111291      0.117877
O	      2.17651      4.14120     -0.05299         0.093127     -0.211783      0.279426
