# total energy = -194.36470688 eV
 
CRYSTAL
PRIMVEC
0.037899 6.161023 6.287051 
6.116749 0.044391 6.280999 
4.113252 4.138145 -0.005518 
PRIMCOORD
36 1
Li	      8.10397      2.09165      6.25806         0.034071     -0.015396     -0.038769
Li	      6.11234      4.12220      2.10542        -0.034511     -0.003911      0.054279
Li	      4.18281      8.21137      8.40887        -0.014634      0.000484      0.089244
Li	      6.07896      2.16706      4.21164        -0.043819     -0.014458     -0.036491
Li	      6.14262      2.08871      8.27554         0.016119     -0.003956      0.009172
Li	      4.18167      4.11860      4.26806        -0.027988     -0.004453      0.024799
Li	      4.16734      2.11591      6.26940        -0.060024     -0.004962      0.019760
Li	      6.07308      4.05497      6.24517        -0.057327     -0.067057      0.029547
Li	      4.10293      6.15023      6.28272         0.017881      0.008566     -0.007961
Cr	      2.15452      4.06035      2.08142        -0.043945      0.106661      0.180690
Cr	      6.17067      6.18426      4.25525        -0.365795      0.275068      0.004482
Co	      6.17135      4.18129     10.44025         0.004556     -0.115443     -0.041347
Cu	      6.15025      0.08399      6.28068         0.039437     -0.105698     -0.024614
Cu	      8.15669      4.14941      4.19434         0.071152      0.002432     -0.158286
Ni	      2.12641      6.21147      4.20674         0.141123     -0.044970     -0.036160
Ni	      2.08172      4.15623      6.31207         0.023091     -0.061119      0.018008
Ni	      4.08423      4.13186      8.33574         0.048307      0.028328      0.059012
Ni	      6.13297      6.23241      8.34502        -0.009521     -0.005890     -0.133564
O	      2.00740      6.10245      6.22650        -0.128840      0.173959      0.163072
O	      4.22529      6.17423      8.44028        -0.329064      0.065408     -0.057717
O	      2.02015      2.19242      2.25119         0.047596      0.046696      0.066284
O	      3.94898      4.15958      2.19373        -0.056991     -0.006316     -0.005728
O	      3.91534      1.99334      4.18763         0.186886      0.007016      0.081798
O	      6.18729      4.25044      4.22570         0.000925     -0.128792      0.085902
O	      6.14244      1.94812      6.24912         0.036878      0.044842      0.045387
O	      8.32384      4.13148      6.37301         0.080255     -0.053490      0.030823
O	      2.00350      4.10609      4.12033         0.014726     -0.148281     -0.123764
O	      4.22022      6.34739      4.19336         0.112842     -0.033647      0.031459
O	      3.96915      4.14758      6.31704         0.160285      0.021879     -0.155744
O	      6.12917      6.34192      6.17998         0.007616     -0.141674     -0.244396
O	      6.21429      4.20687      8.46633         0.190168     -0.182175     -0.057015
O	      8.06613      6.12627      8.43573         0.246906     -0.223800     -0.171691
O	      4.26689      8.39540      6.09713        -0.145673      0.118544     -0.040483
O	      6.17372      8.19536      8.34262        -0.075132      0.172777      0.082506
O	      6.12427      6.07663     10.35364        -0.165532      0.013945      0.216721
O	      8.38067      8.29162     10.41102         0.077975      0.278885      0.040785
