# total energy = -193.81482732 eV
 
CRYSTAL
PRIMVEC
-0.005149 6.096446 6.257153 
6.117793 -0.003201 6.255291 
4.090017 4.074569 -0.013801 
PRIMCOORD
36 1
Li	      2.05640      8.12442      6.27620         0.026678      0.027173      0.029918
Li	      4.03258      2.06309      2.12062        -0.004393      0.034454      0.032907
Li	      4.04577      0.04983      4.14835         0.007522      0.052312     -0.030066
Li	      6.06979      2.07703      4.16387        -0.107778      0.012230      0.039737
Li	      4.11574      6.07725      2.08543         0.005072     -0.027597     -0.079125
Li	      4.10059      4.00715      4.13764         0.032217     -0.099041      0.012490
Li	      4.07412      2.01537      6.16955         0.053970     -0.055118     -0.083718
Li	      2.03575      4.08800      6.27079        -0.055557      0.003933      0.083385
Li	      4.05400      6.13847      6.23568         0.077857      0.039741      0.045844
Cr	      6.07594      3.97999      6.20964        -0.012917     -0.227088     -0.032018
Cr	      6.07172      6.15053      8.30418        -0.049998      0.078995     -0.060850
Co	      4.07822     10.12859      6.26212         0.227141      0.804121     -0.099162
Cu	      2.02421      6.12843      8.29774         0.000453     -0.029880     -0.011891
Cu	      2.07718      4.02796      2.07036         0.068780     -0.041570      0.024220
Cu	      8.16073      8.12689      8.31864         0.112826     -0.121308      0.071071
Ni	      6.14845      6.09982      4.17710        -0.097964      0.040508      0.120347
Ni	      4.09911      8.13495      4.18087        -0.004965      0.057455      0.194085
Ni	      2.09495      6.09359      4.20748         0.018775     -0.034416      0.057777
O	      4.08125      6.01766      8.35394         0.008120      0.118428     -0.066562
O	      6.21165      8.12613      8.34094        -0.139930     -0.106410      0.044797
O	      8.32053      8.06199     10.31093        -0.067044      0.248596     -0.108370
O	      2.04194      1.98934      2.16589        -0.035057      0.095678     -0.134531
O	      4.11728      4.10894      1.98735         0.087341     -0.238570     -0.849386
O	      3.92039      2.04066      4.18101         0.227254      0.008293     -0.035010
O	      6.11085      4.13509      4.27955        -0.067497     -0.152236     -0.085275
O	      6.12691      2.09138      6.19201         0.005754     -0.162793      0.035681
O	      8.09668      4.05898      6.39286         0.700315     -0.090241      0.053799
O	      1.95461      4.05874      4.04285         0.128122     -0.005883     -0.094169
O	      4.16778      6.25214      4.19439        -0.032943     -0.163979      0.024798
O	      4.22891      4.03997      6.33724        -0.113824      0.018443      0.046290
O	      6.12840      5.95495      6.31420        -0.023680     -0.031254      0.119906
O	      6.10692      4.11073      8.26234        -0.048064     -0.061825     -0.066518
O	      8.08562      6.09752      8.41622         0.058792      0.012632     -0.176529
O	      1.99538      6.13501      6.23073        -1.012030     -0.260326      0.210453
O	      4.08691      8.28660      6.19599         0.148813      0.291944      0.089232
O	      6.14224      5.99032     10.36810        -0.122163     -0.035402      0.676444
