# total energy = -194.12765980 eV
 
CRYSTAL
PRIMVEC
0.051757 6.156620 6.190851 
6.239205 0.034837 6.207537 
4.160117 4.116112 0.022614 
PRIMCOORD
36 1
Li	      4.29929     10.25953      6.31064        -0.055104      0.109558     -0.072106
Li	      2.14842      8.09780      6.28108        -0.105020     -0.005051      0.014483
Li	      2.12162      6.18805      8.18203         0.103882     -0.055592     -0.060423
Li	      4.20295      8.23154      8.15356        -0.003203     -0.065506     -0.065435
Li	      0.03769      2.01158      2.00893        -0.051327      0.093391     -0.207273
Li	      6.22984      4.12371      6.27085         0.013297     -0.069887      0.001212
Li	      2.13636      6.17194      4.24836         0.005165      0.008708      0.079506
Li	      4.09981      6.20874      6.25558         0.077639     -0.052776      0.031665
Li	      4.19645      4.16335      8.23275        -0.019602      0.004882     -0.050869
Cr	      6.32819      8.23361     10.34067         0.058780     -0.144867      0.519308
Cr	     10.38635      8.26748     10.40269         0.011714     -0.123092      0.029245
Co	      4.18264      2.07756      6.18412        -0.082427      0.212166      0.240643
Cu	      8.34976      4.13218      8.24307        -0.164834      0.136009     -0.421053
Cu	      2.04859      2.03252      4.05024         0.026254     -0.046921      0.308628
Cu	      4.15525      4.18611      4.10241         0.166681     -0.166620      0.368502
Cu	      4.22022      6.16349     10.32161         0.082191      0.129936      0.386757
Ni	      6.27750      8.26264      6.27146         0.159118     -0.173978     -0.160875
Ni	      6.26784      6.18215      8.26318         0.004331      0.050444     -0.184254
O	      8.21357      6.14333      8.12025         0.145589     -0.253604      0.022841
O	      2.14341      6.02294      6.22402        -0.055716      0.136076      0.080996
O	      4.37667      6.17122      8.33613        -0.187972     -0.040175      0.041744
O	      2.08359      2.13168      2.10440         0.026918      0.159359     -0.083062
O	      4.07260      4.13308      2.20462        -0.156650     -0.014150      0.059191
O	      4.23344      2.03670      4.25898        -0.162410      0.221862     -0.288874
O	      6.35935      4.11762      4.11027        -0.107661      0.064710     -0.072363
O	      6.05772      2.12212      6.13946         0.522686     -0.052935     -0.132861
O	      8.29990      4.33056      6.23992         0.015191     -0.515389     -0.358864
O	      1.98192      4.02416      4.05655         0.113622      0.207419      0.242882
O	      4.24364      6.21273      4.16990        -0.218317     -0.081712     -0.105860
O	      4.09762      3.99108      6.07301         0.022205      0.417605     -0.244088
O	      6.42938      6.29944      6.12780        -0.376210      0.008543     -0.123934
O	      6.28380      4.25584      8.34271         0.276548     -0.190147      0.020278
O	      4.33070      8.23107      6.13120        -0.120505     -0.031938      0.098272
O	      6.31392      8.09924      8.34772         0.068111      0.180623      0.049944
O	      6.23307      6.19657     10.35031        -0.082697      0.018575      0.102222
O	      8.35224      8.28371     10.44867         0.049735     -0.075526     -0.066124
