# total energy = -193.10850558 eV
 
CRYSTAL
PRIMVEC
-0.039671 6.222591 5.950300 
6.415533 -0.039202 5.950938 
4.256114 4.128702 -0.005898 
PRIMCOORD
36 1
Li	      6.31283     10.22640      7.95029         0.096981      0.052396      0.021393
Li	      4.33604      8.30881      7.93446        -0.008099     -0.054559     -0.010846
Li	      0.03466      2.09176      2.03228         0.015732      0.042092     -0.056669
Li	      2.09781      4.16223      2.05747        -0.074480     -0.041865     -0.072793
Li	      2.08289      2.04938      3.89394         0.044699     -0.103788     -0.014628
Li	      6.31267      4.11283      6.03344         0.035641     -0.017819      0.007776
Li	      6.37726      8.21473      6.02442        -0.030107     -0.025103      0.054703
Li	      4.23315      4.13961      7.91986        -0.007840      0.022572      0.006507
Li	      6.34351      6.19689      7.94388        -0.051447      0.037647     -0.011422
Cr	      2.11450      2.07484      0.07250        -0.167632      0.364517      0.405895
Cr	      8.33923      6.18791      6.03209         0.073036     -0.089524     -0.088223
Co	      4.23093      6.21275      9.79194        -0.051015      0.104386     -0.147781
Cu	      4.25187      4.14547      0.05768        -0.020987     -0.131532      0.182507
Cu	      4.21641      4.08615      3.92134         0.043012     -0.176189     -0.085483
Cu	      6.40691      4.11220      9.87349        -0.198962     -0.040500      0.194745
Cu	      8.54673      6.14713      9.78763        -0.062369      0.146092     -0.036020
Cu	      4.30922      6.09237      6.03321        -0.097478      0.303806      0.379034
Ni	      6.35149      8.29946      9.85937         0.025977      0.047389      0.019027
O	      1.96253      6.40097      5.79038         0.182704     -0.289934     -0.086083
O	      4.09556      8.31907      5.84951         0.045717     -0.223978      0.012275
O	      4.22861      6.27166      7.95201         0.020421     -0.074723     -0.198234
O	      6.39415      8.26227      8.02282         0.010964      0.031039     -0.278322
O	      6.12942      6.41983      9.91756        -0.013816     -0.223738     -0.159462
O	      2.12296      2.09380      1.83569        -0.018162     -0.009748     -0.182738
O	      4.26500      4.15486      2.03773        -0.013042      0.005764      0.228302
O	      4.26790      2.01710      4.07951         0.040271      0.331790      0.088507
O	      6.69316      3.94773      3.96692        -0.048927      0.225785      0.001475
O	      6.46290      1.99229      5.85149         0.168339      0.305349      0.150943
O	      8.60795      4.06017      5.80830        -0.120335     -0.021314      0.129284
O	      1.84028      4.26198      3.99297         0.266959     -0.061267      0.024491
O	      4.32265      5.98691      4.13517        -0.001345     -0.049092     -0.341869
O	      4.24076      4.00082      5.86306        -0.002119     -0.090471      0.024651
O	      6.55925      6.14300      5.96209        -0.034569     -0.025487     -0.069010
O	      6.43472      4.10066      8.06793        -0.055556     -0.003843     -0.216402
O	      8.59061      6.17278      7.84046         0.065176     -0.016051      0.136309
O	      8.67582      8.34827      9.92553        -0.057343     -0.250099     -0.011841
