# total energy = -194.40939522 eV
 
CRYSTAL
PRIMVEC
0.008960 6.190215 6.257583 
6.145876 0.010603 6.256011 
4.105395 4.133750 -0.000953 
PRIMCOORD
36 1
Li	      2.07488      8.24865      6.27860         0.022704     -0.003691      0.008615
Li	      2.10860      6.27757      8.27416        -0.010763      0.040803      0.003024
Li	      4.08668      8.17124      8.35634        -0.066011     -0.019142      0.044915
Li	      4.11436      6.17600     10.40796        -0.044338      0.037364     -0.003690
Li	      2.03996      2.06597      4.13721         0.010623     -0.024598     -0.039733
Li	      8.17450      6.22182      6.25366        -0.044515      0.027395     -0.034181
Li	      2.08505      6.20570      4.18695         0.055594     -0.034342      0.033506
Li	      2.03320      4.14301      6.20666        -0.006571      0.011486     -0.014377
Li	      4.08468      6.20002      6.30955         0.005547     -0.027745      0.003365
Cr	      0.08456      6.17113      6.21155         0.136322     -0.267573      0.048783
Cr	      2.08864      4.09098      2.08566        -0.021197      0.072775     -0.053882
Co	      4.08099      4.10643      4.29453        -0.373792      0.259942     -0.300446
Cu	      6.16369      2.08567      4.19201        -0.001893      0.329121     -0.037176
Cu	      4.12001      6.14921      2.08560        -0.050285      0.093257      0.005969
Cu	      6.19716      4.18743      6.22373        -0.124101      0.114873      0.228785
Cu	      4.09828      8.20143      4.25574         0.143088     -0.045011     -0.268732
Cu	      4.06415      4.17126      8.32924        -0.268947     -0.202181     -0.413635
Cu	      6.13620      6.22557      8.34165        -0.096454     -0.052757     -0.168747
O	      8.20228      6.22902      8.33863         0.134019     -0.275183      0.007411
O	      4.08883      8.41000      6.17296        -0.076051      0.145189     -0.090002
O	      4.16000      6.09878      8.35193        -0.136895      0.449384     -0.009464
O	      6.15853      8.18032      8.43583         0.534503      0.291027     -0.073460
O	      6.14087      6.32725     10.46632         0.088739     -0.132617      0.068502
O	      8.28452      8.28594     10.29402        -0.194623     -0.126390      0.619672
O	      1.97563      2.14768      2.07523         0.124123     -0.100338     -0.037968
O	      4.04096      4.18883      1.95057         0.106233     -0.197305     -0.162375
O	      4.15999      2.30343      4.13502         0.059350     -0.504898      0.074731
O	      6.04582      4.09063      4.29066         0.197231     -0.263185     -0.304714
O	      6.14149      1.99732      6.25340         0.005122      0.065578     -0.017903
O	      8.24060      4.15659      6.32410         0.115690     -0.013914     -0.023653
O	      2.08878      4.08827      4.08566        -0.002943      0.026995      0.136726
O	      4.11629      5.95753      4.07289         0.089170      0.344088      0.242354
O	      4.19773      4.15436      6.28253        -0.059651     -0.019392      0.258831
O	      6.14927      6.13839      6.38038         0.054835      0.060456      0.027509
O	      6.19632      4.11391      8.37647        -0.258250     -0.032523      0.272679
O	      1.88284      6.20288      6.25868        -0.045615     -0.026949     -0.031241
