# total energy = -193.85055307 eV
 
CRYSTAL
PRIMVEC
0.003545 6.236454 6.079498 
6.178639 0.011061 6.071486 
4.121653 4.155109 0.005097 
PRIMCOORD
36 1
Li	      4.11787      2.08543      2.07396        -0.004191      0.009748      0.030007
Li	      4.11426      0.09501      4.00269         0.004040      0.073508     -0.029364
Li	      4.18689      6.17588      2.07609         0.006785     -0.008667      0.043990
Li	      2.09760      4.11715      2.05519         0.016606     -0.020084      0.034655
Li	      2.07302      2.09842      4.02244         0.017322     -0.003396     -0.015092
Li	      4.13781      4.11511      3.99747         0.004258      0.006185     -0.015278
Li	      6.15841      8.27852      6.10443        -0.033564     -0.001397      0.005089
Li	      4.08083      4.22792      8.09280         0.015117     -0.004002     -0.012875
Li	      6.13576      6.26572      8.09646        -0.026783      0.004336     -0.004313
Cr	      6.18415      4.21118      6.16268         0.029628     -0.110574      0.124842
Cr	      8.23985      6.18142      9.97092         0.024580     -0.101844     -0.122010
Co	      6.17722      4.15834      2.05370        -0.052957      0.054119      0.077195
Ni	      4.09348      4.11198      0.03205        -0.026964      0.003285      0.033524
Ni	      2.05995      2.06779      0.06016        -0.090225      0.057588      0.035970
Ni	      6.16031      2.10316      4.02008         0.058261     -0.047959     -0.055138
Ni	      8.22021      6.26876      6.09422        -0.004948      0.053801      0.098982
Ni	      6.17036      4.17316     10.05838        -0.038415      0.009595     -0.147686
Ni	      4.11716      6.25588      6.08670         0.009594     -0.048848     -0.011769
O	      2.06775      1.89214      2.01706         0.007070     -0.110560      0.119851
O	      4.29621      4.16264      1.99009         0.122724     -0.020569      0.126255
O	      4.27725      2.09007      4.11415        -0.155266      0.026594     -0.109633
O	      6.23344      4.11966      4.02809         0.026857      0.146088     -0.008654
O	      6.17607      2.13678      5.99348         0.010877      0.081283      0.131256
O	      8.15144      4.17290      6.08958        -0.082139      0.024051     -0.008286
O	      2.03141      4.32850      4.06901         0.084606      0.038153      0.016660
O	      4.01145      6.30002      4.12648         0.024953     -0.118994     -0.087229
O	      4.30794      4.19291      6.05444         0.023227      0.023080      0.002342
O	      6.19059      6.15143      6.08470        -0.023114      0.064136     -0.012460
O	      6.19622      4.14412      7.99159         0.002168      0.021268     -0.253880
O	      8.25040      6.26911      8.17796        -0.012432     -0.013424      0.112572
O	      2.05155      6.24492      6.14416        -0.016523     -0.123581      0.042675
O	      4.03528      8.29613      6.01603         0.129459     -0.040509      0.126098
O	      3.95993      6.23695      8.01785        -0.047385     -0.000049      0.102915
O	      6.18077      8.50540      8.18967         0.008337      0.058730     -0.172505
O	      6.24896      6.22506     10.14007        -0.041274      0.033910     -0.094587
O	      8.14879      8.14478     10.19718         0.029708     -0.015003     -0.104120
