# total energy = -197.04804036 eV
 
CRYSTAL
PRIMVEC
0.074760 6.179604 6.286044 
6.218941 0.026950 6.335901 
4.150193 4.156130 0.014720 
PRIMCOORD
36 1
Li	      2.16543      8.18903      6.23225        -0.002284      0.025366     -0.080784
Li	      2.12775      6.21601      8.30872         0.031949     -0.004023     -0.054605
Li	      6.37670      8.27673     10.51266         0.032728     -0.083283     -0.059276
Li	      0.04568      2.09062      2.12381        -0.012789      0.012432      0.050099
Li	      4.15629      8.23418      4.25625         0.006258      0.036129      0.011003
Li	      2.18189      6.25996      4.25361        -0.053207      0.086813      0.018004
Li	      2.06529      4.23121      6.25745         0.022049     -0.015163      0.038004
Li	      4.11512      6.20732      6.25895         0.001585     -0.062295      0.001699
Li	      8.36910      8.27553      8.50473        -0.005134     -0.010785      0.010429
Cr	      4.19345      2.07556      6.31059        -0.139010      0.290917     -0.023376
Cr	      6.22923      6.22210      8.41074        -0.024336      0.191339     -0.000625
Co	      8.37536     10.26586     10.47932         0.130578     -0.224481     -0.186304
Co	      4.13587      4.26300      4.23246         0.058357     -0.772213      0.284286
Cu	      0.13627      6.19473      6.30719        -0.042740     -0.062182      0.021421
Cu	      6.22599      6.23306      4.21832        -0.229317      0.093732      0.122320
Ni	      4.21695      8.26417      8.39911         0.035314     -0.010449     -0.012398
Ni	      2.10489      4.15084      2.16547         0.025164      0.034639      0.001825
Ni	      6.26111      4.09773      6.32460        -0.035558     -0.042575      0.112421
O	      1.98647      6.22310      6.27228         0.000779     -0.028105     -0.006219
O	      4.21521      8.46901      6.43148        -0.031085      0.091433     -0.221657
O	      2.23407      2.12933      2.20862        -0.144019     -0.092388     -0.222853
O	      4.18235      4.10107      2.37004        -0.065330      0.384954      0.130807
O	      4.11350      1.92193      4.24738         0.033599      0.091737      0.174823
O	      6.35622      4.18964      4.30242         0.133096      0.283860     -0.044739
O	      6.17296      1.98628      6.34774        -0.021789     -0.093551     -0.058085
O	      8.44379      4.20838      6.21734         0.035307     -0.038806     -0.038524
O	      2.17578      4.04986      4.20732         0.176761     -0.126960      0.019826
O	      4.27631      6.19369      4.23397        -0.064242     -0.025504     -0.048981
O	      4.22508      4.06381      6.15497        -0.106863      0.148125     -0.129847
O	      6.31048      6.17163      6.39647         0.137037     -0.100367      0.114817
O	      6.30028      4.27883      8.32627        -0.100740      0.002348     -0.005591
O	      8.21476      6.24161      8.33891        -0.003925      0.013615     -0.020759
O	      4.21363      6.21104      8.52949         0.064866     -0.088886      0.079444
O	      6.12025      8.09300      8.37414         0.291674     -0.127962      0.065062
O	      6.11704      6.16735     10.28830        -0.156381      0.064071     -0.020638
O	      8.34193      8.46104     10.49968         0.021649      0.158470     -0.021032
