# total energy = -196.77027563 eV
 
CRYSTAL
PRIMVEC
0.003340 6.263770 6.041669 
6.285744 -0.034115 6.078269 
4.170942 4.181145 -0.002954 
PRIMCOORD
36 1
Li	      2.07437      2.02146      0.08835        -0.039406     -0.001839      0.017497
Li	      2.06786      0.06876      2.05599         0.023154     -0.008786      0.054763
Li	      6.30575      8.30714     10.06545         0.024221      0.064216     -0.053149
Li	      4.20243      6.25243      2.07163         0.049776      0.057934     -0.055470
Li	      2.16338      4.07820      2.11038        -0.102262     -0.070536      0.141583
Li	      2.04035      2.07168      3.96538         0.044982      0.115150      0.005795
Li	      4.13269      4.32148      3.89447        -0.110018      0.038457      0.149519
Li	      2.15912      6.21175      3.99935         0.002310     -0.146614     -0.090454
Li	      6.26844      6.24688      8.12341         0.054388      0.062729     -0.127912
Cr	      8.37760      6.24255      6.10518        -0.190742      0.002557      0.183737
Cr	      6.29129      4.15370      6.07542         0.017640      0.085036      0.000905
Co	      4.18270     -0.01299      4.05091        -0.461100      0.041434      0.272329
Co	      2.06773      4.21072      5.99808         0.241422     -0.093324      0.355284
Cu	      4.20636      4.17977      0.04261         0.001251     -0.113809      0.046580
Cu	      4.11111      6.28748      6.00074        -0.138892      0.108173      0.143162
Cu	      8.33996      8.37359      8.10511        -0.119697     -0.287128     -0.048549
Ni	      4.13997      2.11002      2.06291         0.377579     -0.201387      0.118632
Ni	     10.43077      8.29264     10.06119         0.570167      0.010711     -0.213950
O	      8.34149      6.29826      7.96744         0.058562      0.198942     -0.108653
O	      2.05036      6.17719      6.01705         0.074823      0.038638     -0.070993
O	      4.20053      6.30393      8.13551        -0.002202     -0.251187     -0.155946
O	      2.23798      2.11329      2.02802        -0.440186     -0.056413     -0.054573
O	      4.16804      4.08052      1.96182         0.159408      0.335771     -0.577423
O	      4.23922      1.87458      4.12651         0.077041     -0.115287      0.010827
O	      6.48513      4.12767      4.11602         0.174157      0.005554     -0.180519
O	      6.12005      2.16058      6.06911        -0.028248     -0.209720      0.007872
O	      8.30014      4.24231      5.98743         0.242885      0.006117     -0.105515
O	      2.08472      4.15911      4.19958        -0.278373      0.100243     -0.248160
O	      4.17318      6.30067      4.09485        -0.077773     -0.106740      0.129395
O	      4.23212      4.08439      6.08958         0.082614      0.187750     -0.170080
O	      6.45115      6.19652      6.02637        -0.025841      0.052119      0.040712
O	      6.23418      4.16598      8.03114        -0.209000      0.014350      0.003930
O	      4.22292      8.30331      6.04853        -0.115751     -0.184659     -0.055647
O	      6.22538      8.31258      7.86523         0.041560      0.066840      0.076147
O	      6.08388      6.18918     10.19302         0.168026      0.073657      0.465293
O	      8.37541      8.51832     10.03059        -0.146474      0.181049      0.093031
