# total energy = -196.75703451 eV
 
CRYSTAL
PRIMVEC
0.008081 6.227697 6.142299 
6.203753 0.027614 6.122496 
4.158362 4.161147 -0.004827 
PRIMCOORD
36 1
Li	      0.05438      6.10860      6.05974         0.029643     -0.080221      0.098746
Li	      2.24409      8.25174      6.05588         0.137798     -0.060698     -0.047552
Li	      4.17347      8.31993      8.08077         0.059888      0.020155     -0.087912
Li	      6.21037      8.24843     10.26872         0.128945     -0.062676     -0.053651
Li	      4.13189      4.17808      4.09559        -0.006796      0.096357     -0.033095
Li	      4.18322      8.36110      4.21829        -0.129448     -0.022891      0.032611
Li	      8.21036      6.27245     10.27248         0.002740      0.053945      0.072786
Li	      4.11908      6.37592      6.02565        -0.058185      0.091809     -0.010499
Li	      6.22684      6.24089      8.27489        -0.041226     -0.001216     -0.016452
Cr	      4.17263      6.20900      2.07116         0.061529      0.247126     -0.447105
Cr	      8.25660      8.35183      8.22350        -0.003880      0.123505     -0.360119
Co	      2.05891      6.22819      8.13674        -0.019227     -0.133543     -0.294607
Co	      6.18153      4.17784      6.11045        -0.067934     -0.044053      0.160617
Cu	      4.21563      6.22826     10.24724        -0.067217     -0.234680      0.078327
Cu	      2.07299      4.15488      2.07839         0.227174      0.007364     -0.061089
Cu	      2.06680      2.08857      4.08773        -0.359267     -0.059036     -0.053215
Cu	      4.12789      2.10665      6.11900         0.228669      0.029317      0.180290
Ni	      1.97891      4.20756      6.07934         0.222425     -0.038784      0.114809
O	      2.11434      6.21148      6.32188        -0.003695      0.148471     -0.086181
O	      4.21079      8.30391      6.15480        -0.114467     -0.050908     -0.061132
O	      6.14359      6.27840     10.20298        -0.267924      0.005596      0.030907
O	      8.29908      8.39578     10.13426        -0.022185      0.233647      0.440118
O	      2.02221      1.96189      2.07153        -0.005758      0.259948      0.000882
O	      4.33223      4.24959      2.02264        -0.163929     -0.217326      0.183444
O	      4.05603      1.98932      4.14772         0.076980     -0.177347      0.105702
O	      6.29682      4.23808      4.08989         0.240643      0.083473      0.106860
O	      6.13207      2.26340      6.17482        -0.003494      0.174720     -0.058900
O	      8.13984      4.25869      6.21216        -0.182035     -0.345144      0.053960
O	      2.13863      4.05176      4.01249        -0.178597      0.061377     -0.031807
O	      4.21766      6.25179      3.99636         0.253368     -0.110006      0.272235
O	      4.21954      4.09634      6.16904         0.027971      0.215801      0.057556
O	      6.28078      6.15978      6.08322        -0.140783     -0.229048      0.067810
O	      6.11297      4.11075      8.01942         0.187859      0.103677     -0.087496
O	      8.35352      6.30478      8.16511         0.012527     -0.115675     -0.135420
O	      3.99369      6.17201      8.25471         0.036719      0.115224     -0.252030
O	      6.29337      8.47472      8.13000        -0.098835     -0.088259      0.120601
