# total energy = -93.06946398 eV
 
CRYSTAL
PRIMVEC
0.000207 2.073848 2.072090 
6.221075 6.283036 -4.204838 
-4.155075 2.102941 -2.101524 
PRIMCOORD
16 1
Li	     -2.09193      4.21056     -2.12355         0.037116     -0.021799      0.030223
Li	      2.11661      6.24243     -4.15445        -0.029483     -0.052705      0.066022
Li	     -0.00629      4.19360     -0.02890        -0.001937      0.026892     -0.024014
Li	      4.13072      6.37916     -2.20197        -0.058087     -0.012443     -0.006544
Mn	     -0.01506      0.01103     -0.00754         0.621551      0.287911     -0.071000
Mn	     -0.01072      6.30585     -2.13564         0.176411     -0.116013      0.030119
Ni	     -2.06404      2.12686     -0.02965        -0.174373     -0.051818     -0.013504
Ni	      2.08981      4.21055     -2.12395        -0.109393      0.101153     -0.007589
O	      4.29830      6.32639     -4.23349        -0.265403     -0.105853      0.144412
O	      0.00526      6.19255     -4.10630         0.124102     -0.137824      0.196073
O	      2.06660      8.54173     -4.36415        -0.219621     -0.261431      0.123599
O	     -2.22511      4.16560      0.00323        -0.041686      0.140745     -0.174368
O	     -0.00555      4.31726     -2.22976         0.020850      0.174174     -0.117325
O	      1.94900      6.29421     -2.12437        -0.197927     -0.002302     -0.065076
O	     -0.00031      1.98906      0.09721         0.086792      0.072014     -0.080739
O	      2.22047      4.22486     -0.05407         0.031089     -0.040700     -0.030288
