# total energy = -197.04457808 eV
 
CRYSTAL
PRIMVEC
0.044049 6.412648 6.084029 
6.127297 0.044925 6.083285 
4.109451 4.299664 0.005262 
PRIMCOORD
36 1
Li	      6.16544      6.45309     12.14337         0.032894      0.009785     -0.191532
Li	      4.06114      0.09864      4.07994         0.118953      0.045321     -0.014484
Li	      6.08962      2.23812      4.11511         0.010017     -0.090014     -0.019275
Li	      6.23653      6.39627      4.15051        -0.094036     -0.103067      0.051396
Li	      4.03746      2.17652      5.99081        -0.016864     -0.001496      0.074173
Li	      6.18379      4.35324      6.05291         0.016595      0.047259     -0.022662
Li	      0.05220      4.29510      4.06128         0.050514      0.148614     -0.044116
Li	      4.19795      6.44100      6.09646        -0.033442     -0.076091     -0.040883
Li	      6.16252      6.42209      8.04771         0.011091     -0.048924      0.131143
Cr	      8.18141      2.22954      6.05589        -0.270379      0.241179     -0.175516
Cr	      4.14221      4.33760      8.11573         0.304255      0.003163     -0.030792
Co	      4.10480      4.28248      4.07515         0.046765      0.307759      0.303175
Co	      8.13476      6.49109     10.15230         1.089670     -0.148495      0.106269
Cu	      6.21903     10.70590      8.15463        -0.279485      0.107241     -0.190190
Cu	      4.16358      8.52900      8.15726         0.013767     -0.052209      0.026800
Cu	      6.14621      2.18430      8.10589        -0.345273      0.253461      0.219665
Cu	      8.13824      4.34257      8.10478         0.253666      0.155850      0.016463
Cu	      6.15802      8.44492      6.06011        -0.111966     -0.022366     -0.308948
O	      6.15894      4.23139      8.11227        -0.176577     -0.185003     -0.032707
O	      4.07991      8.56446      6.20058         0.079516      0.010790      0.089616
O	      4.04652      6.32470      8.17082         0.407457      0.055343      0.015632
O	      6.24426      8.71889      8.00604        -0.319295      0.034895      0.315012
O	      6.40671      6.44560     10.11346        -0.958447      0.131237     -0.038149
O	      2.02646      2.01295      1.97637         0.260391      0.005204      0.048557
O	      4.08180      4.40098      2.15465        -0.224416     -0.170186     -0.198520
O	      4.12914      2.33620      3.95736        -0.080215      0.048768     -0.036348
O	      5.98699      4.35478      4.01902        -0.029289     -0.044692     -0.024180
O	      6.31646      2.16496      6.13657         0.127587      0.054470     -0.044688
O	      8.22602      4.13985      6.14518         0.003163     -0.281483      0.000749
O	      2.14876      4.30206      4.02626        -0.094013      0.328705     -0.002272
O	      3.91992      6.25176      4.02219         0.144205     -0.053663     -0.136204
O	      4.00135      4.27411      6.04606         0.110490     -0.071694     -0.160362
O	      6.15842      6.50379      6.09010         0.047204     -0.072212      0.003809
O	      8.26015      6.62327      8.18777         0.016602     -0.039465     -0.106073
O	      2.10873      6.61019      6.02434         0.044200      0.009812      0.311162
O	      8.26931      8.58921     10.15613        -0.155303     -0.537797      0.104276
