# total energy = -195.83613650 eV
 
CRYSTAL
PRIMVEC
-0.007191 6.176093 6.260404 
6.144457 0.017277 6.235538 
4.103938 4.108650 0.003995 
PRIMCOORD
36 1
Li	     10.18321     10.28313     12.45491         0.021391      0.077621     -0.015729
Li	      2.07298      2.10029      0.03881        -0.059887      0.006754      0.054300
Li	      6.19181     10.26045      8.38209        -0.023151      0.038803      0.041382
Li	      4.06197      8.25749      8.26501        -0.023204      0.050536      0.047671
Li	      8.18965      4.09855      4.19387        -0.027446      0.038700      0.005130
Li	      6.15164      2.07926      4.18885        -0.030668     -0.018426      0.033232
Li	      8.22555      4.06605      8.17073         0.014059     -0.061268     -0.031301
Li	      6.22982      4.09140      6.23444        -0.000216     -0.020626     -0.007118
Li	      4.07240      6.24732      6.38364         0.006469     -0.033595      0.026987
Cr	      6.14095      2.06995      8.27214         0.071107     -0.150326     -0.007290
Cr	      2.06342      2.05205      4.13611        -0.067512     -0.101686     -0.114706
Co	      4.11350      4.11010      4.12287         0.199756      0.069997     -0.352261
Co	      2.01417      6.19394      4.24207         0.066917      0.215634     -0.028799
Ni	      4.10351      2.01965      6.18255         0.048378      0.062790     -0.036620
Ni	     10.20654      8.28917     10.48972        -0.220611     -0.142207      0.287477
Ni	      2.05398      4.14083      6.26746         0.098514      0.016036     -0.006431
Ni	      8.17730      8.26721      8.39665         0.015879     -0.079319     -0.012448
Ni	      6.10494      6.19303      8.30030         0.030121     -0.000016      0.020091
O	      1.95347      2.06587      2.16276         0.039922      0.057558     -0.065536
O	      4.08048      4.19124      2.27444        -0.050693     -0.006078      0.304406
O	      4.03245      2.19252      4.11505         0.054407      0.006060     -0.091919
O	      5.96164      4.20053      4.20951        -0.386037     -0.013153      0.029840
O	      6.00916      2.06284      6.35654         0.121111     -0.033129     -0.069504
O	      8.20573      4.25305      6.19994        -0.011063     -0.194782      0.017804
O	      2.13070      4.15358      4.18847         0.257119      0.044650     -0.065767
O	      4.05358      6.10213      4.11033        -0.008260     -0.698058     -0.005898
O	      3.97810      4.00466      6.10932         0.098319      0.110294     -0.209986
O	      6.24395      6.22800      6.17361        -0.127967     -0.100806     -0.014954
O	      6.00068      4.10247      8.40834         0.114595     -0.164428     -0.351743
O	      8.21272      6.31004      8.47223         0.023765     -0.101596      0.082365
O	      2.07732      6.10877      6.03226         0.001434      0.141963     -0.060375
O	      4.28388      8.22672      6.24213        -0.160173     -0.084093      0.267467
O	      4.11415      6.01697      8.37848        -0.149063      0.221050      0.008517
O	      6.29499      8.21789      8.25540        -0.153957      0.133515      0.111144
O	      6.34020      6.16255     10.35424         0.257438      0.872927      0.075500
O	      8.20756      8.08826     10.47113        -0.040794     -0.161296      0.135072
