# total energy = -199.96827082 eV
 
CRYSTAL
PRIMVEC
-0.010441 6.169853 6.325135 
6.094392 0.018511 6.295871 
4.071560 4.102774 0.003977 
PRIMCOORD
36 1
Li	      6.08033      0.07836      6.26591        -0.046192      0.042041     -0.032981
Li	      8.07590      2.11716      6.28569        -0.046847      0.108022      0.015464
Li	      6.08064      4.10124      2.11728         0.054190     -0.024514      0.041818
Li	      4.05110      2.09964      2.15459        -0.010792     -0.036832      0.052578
Li	      8.10568     10.17225     10.56712        -0.018450     -0.055211      0.051105
Li	      6.10608      2.13763      4.27999         0.024966      0.031492      0.014481
Li	      6.12750      2.06666      8.26389        -0.005088      0.052305     -0.102427
Li	      6.14270      3.99277      6.23751         0.085005     -0.089339     -0.069372
Li	      8.13345      8.22784      8.55679         0.010373     -0.022191      0.111656
Cr	      4.05409      6.16858      6.31163         0.049912      0.042131      0.062250
Cr	      6.03741      6.23699      8.47373         0.099762      0.139541      0.079348
Co	      2.06296      4.07533      2.07511        -0.322075     -0.073918      0.082944
Co	      4.06491      4.10394      4.16473         0.321014     -0.209641     -0.291319
Co	      6.08799      4.13083     10.49312        -0.045706      0.034524      0.032967
Cu	      6.08599      8.26754      6.37320        -0.068758     -0.011049      0.137699
Ni	      2.05597      2.01744      4.12272        -0.062090      0.259015     -0.096656
Ni	      4.10561      2.04081      6.27900         0.030978     -0.134649      0.186930
Ni	      8.09790      6.23070     10.53016        -0.078153      0.020286     -0.072549
O	      6.16055      8.04338      8.54890        -0.091269     -0.117659      0.001681
O	      2.02875      2.23947      2.12669         0.009271      0.100019     -0.358751
O	      3.91285      4.14401      2.25131         0.155723     -0.006829      0.204120
O	      4.02025      2.21510      4.27815         0.080428     -0.153614     -0.162508
O	      5.95510      4.18532      4.14729         0.136075     -0.359127      0.117081
O	      5.99055      2.06465      6.29016         0.307229     -0.057097      0.036749
O	      8.13097      4.17416      6.48086        -0.042525     -0.170856      0.031080
O	      2.03135      4.11125      4.04333        -0.155001     -0.010353     -0.245281
O	      4.07042      6.18115      4.29653        -0.012383      0.143444      0.044202
O	      4.00085      4.14245      6.12799        -0.124283      0.215839     -0.027606
O	      6.10976      6.27804      6.37903        -0.113455      0.128068      0.161791
O	      6.20818      4.21272      8.53617         0.005821      0.046845      0.015275
O	      8.02525      6.04261      8.41240        -0.028540      0.001380     -0.083790
O	      2.07533      6.09023      6.31315        -0.053354     -0.207082      0.110358
O	      4.13837      8.15871      6.14350         0.175366      0.082257     -0.053721
O	      4.18302      6.12417      8.30232         0.042522     -0.016890     -0.000390
O	      6.08399      6.03269     10.42630        -0.197472      0.001313     -0.035896
O	      8.29136      8.18061     10.53293        -0.066203      0.308326      0.041668
