# total energy = -199.45639107 eV
 
CRYSTAL
PRIMVEC
0.047544 6.276520 6.118414 
6.170232 0.078009 6.087992 
4.166251 4.216117 -0.000294 
PRIMCOORD
36 1
Li	     10.22029      4.29196      6.12332         0.015762      0.002364      0.094588
Li	      8.24305      2.32765      6.15480         0.001639     -0.017213      0.042835
Li	      2.03637      0.07122      2.01509        -0.061633      0.077850     -0.007421
Li	      4.05196      2.13926      2.00160        -0.099265      0.011569      0.005976
Li	      8.20912      4.29953      4.14561        -0.033317     -0.043510     -0.060585
Li	      8.28081      4.17918      7.98371         0.017158     -0.094599      0.080526
Li	      2.12365      2.08812      4.03406         0.021865      0.009221     -0.105507
Li	      6.33075      4.22657      6.10519        -0.051051     -0.066808      0.010398
Li	      6.23362      8.43813      6.13929        -0.011073      0.043555      0.026929
Cr	      4.18362      4.20340      4.00623        -0.043616      0.038137     -0.193148
Cr	      4.15650      6.34573      6.14998        -0.211425      0.094863     -0.142275
Co	      6.25309      2.18483      8.07045         0.348214     -0.232132      0.133099
Co	      0.10823      4.22146      4.10742         0.003392      0.037503      0.070491
Co	      4.15080      4.23546      8.11536         0.073292      0.022888      0.052497
Cu	      6.21229      2.16722      4.06943         0.024233      0.156577      0.360978
Cu	      2.12746      6.29551      4.09055         0.111602     -0.027366      0.052174
Cu	      6.19483      6.37238      8.12892         0.023262     -0.038855      0.072328
Ni	      8.25396      6.25403      6.07339         0.024243      0.116147     -0.002210
O	      2.27404      6.29056      6.04910         0.082873     -0.026399      0.119648
O	      6.43885      8.40745      8.19660        -0.030907     -0.193281     -0.386337
O	      6.33292      6.38907     10.08355        -0.207704     -0.070051     -0.138907
O	      1.88641      2.11454      2.07695         0.047832     -0.000862     -0.085556
O	      4.16395      4.35907      2.15238        -0.119219     -0.205468      0.205910
O	      4.17524      2.25408      4.02774        -0.140307     -0.033211      0.017581
O	      6.03111      4.14178      4.09358         0.015619      0.140872      0.027759
O	      6.13688      2.12865      6.22917        -0.025445      0.062010     -0.722243
O	      8.27441      4.31225      6.06126        -0.005788     -0.153341     -0.026477
O	      2.18540      4.29408      4.07609         0.120685     -0.108703      0.036149
O	      4.16101      6.24557      4.04643         0.150783      0.024811      0.437593
O	      4.14691      4.32653      6.09459         0.018979      0.026409      0.023632
O	      6.11338      6.31979      6.18884         0.031598     -0.032023      0.115197
O	      6.08944      4.14231      8.19755        -0.069200      0.425630     -0.035014
O	      8.46668      6.53088      8.15160        -0.137623      0.100327     -0.085502
O	      4.18763      8.23505      6.09475         0.034540     -0.116388      0.034915
O	      4.11042      6.17412      8.07193         0.051436     -0.065911      0.064567
O	      8.31189      8.40458     10.03641         0.028565      0.135388     -0.094593
