# total energy = -199.90105783 eV
 
CRYSTAL
PRIMVEC
0.006636 6.286622 6.089197 
6.195201 -0.017409 6.112410 
4.122787 4.199159 -0.003756 
PRIMCOORD
36 1
Li	      6.27459     10.38513      8.19949        -0.161436      0.094658      0.076689
Li	      4.16351      8.37616      8.15221        -0.118209      0.211822      0.021124
Li	      4.07959      0.10772      3.96543        -0.029747      0.040990      0.122613
Li	      6.07142      2.07385      4.02180        -0.009066      0.059358     -0.042023
Li	      4.09649      6.25948      2.03771         0.055316     -0.075247     -0.006949
Li	      4.15231      4.14615      3.96820        -0.018477     -0.032123     -0.186068
Li	      6.17576      8.39301      6.20679         0.070682     -0.080837     -0.043961
Li	      4.11174      6.35630      6.13876         0.176464     -0.067338      0.006501
Li	      6.15718      6.35822      8.21199         0.146046     -0.060198     -0.058348
Cr	      2.08599      8.35198      6.07666        -0.277497      0.374481      0.445755
Cr	      6.13595      4.18946      6.08930         0.179191     -0.048852      0.361465
Co	      8.24202      4.19249      8.13157        -0.127637     -0.357167     -0.095369
Co	      0.04605      4.17051      4.05905         0.074383      0.093086     -0.251485
Co	      4.07615      4.35965      8.15287         0.158421     -0.242167     -0.080007
Cu	      0.06600      6.24974      6.10484        -0.202409      0.049310      0.306142
Cu	      6.18390      6.26403      4.03850        -0.150479      0.256782     -0.430698
Cu	      4.12442      2.07078      6.04619         0.109145     -0.152993      0.526747
Cu	      2.12564      6.25132      4.04669         0.137106     -0.171830     -0.333824
O	      2.12524      6.38795      6.04460        -0.352080     -0.096455      0.109890
O	      4.14702      6.18332      8.14694         0.112698     -0.205506     -0.062726
O	      6.38555      8.39512      8.17985         0.244578      0.005114      0.013423
O	      6.31034      6.09692     10.26141        -0.106562     -0.126269     -0.011727
O	      2.03058      2.30297      1.99346         0.135860     -0.482626      0.140719
O	      3.89524      4.20771      1.93399         0.769743     -0.148050     -0.164871
O	      4.04750      2.10672      4.10665         0.021377      0.002310     -0.032682
O	      6.12061      4.29900      4.14708         0.038912     -0.182774     -0.209778
O	      6.22322      2.17993      6.03513         0.078832     -0.316906     -0.100942
O	      8.14475      4.11939      6.19430         0.301927      0.011464     -0.217214
O	      1.98853      4.22041      3.95130        -0.073759     -0.254166      0.100088
O	      4.16521      6.43272      4.05498        -0.001695      0.080166      0.078438
O	      4.19413      4.05670      6.28336        -0.362468      0.523030      0.280114
O	      6.24358      6.19066      6.01611        -0.100850      0.195714      0.083101
O	      6.23835      4.19880      8.18078        -0.798005     -0.049119      0.140240
O	      8.24404      6.08423      8.12277        -0.007893      0.762300     -0.052527
O	      4.07606      8.38537      5.97882         0.203088      0.138500     -0.010956
O	      8.44945      8.24867     10.14798        -0.115498      0.251537     -0.420893
