# total energy = -199.49394324 eV
 
CRYSTAL
PRIMVEC
0.000218 6.127676 6.174678 
6.176769 0.013279 6.161207 
4.148210 4.106274 -0.021029 
PRIMCOORD
36 1
Li	      8.25422      8.17829     12.23934         0.019018      0.017580     -0.056774
Li	      6.22951     10.17608      8.22256        -0.058282     -0.037058     -0.068042
Li	      6.24942      8.17327     10.21500         0.028374     -0.032552      0.040446
Li	      4.13505      6.19114      2.09926        -0.027447      0.020264     -0.012776
Li	      2.05394      2.08796      4.06845        -0.023336      0.011157      0.042583
Li	      6.12190      4.09603     10.18891        -0.049675      0.033520     -0.009786
Li	      8.26528      6.19290     10.22773         0.011278      0.047381      0.024636
Li	      6.17674      8.21210      6.21934        -0.024962      0.030504     -0.029266
Li	      8.20470      8.13785      8.30374         0.055938      0.036201     -0.007250
Cr	      6.20065      4.02814      6.15391         0.067840     -0.137211      0.216580
Cr	      4.03347      6.17182      6.09606         0.041869     -0.135015      0.139136
Co	      6.26109      6.17346     12.26830         0.107370      0.081577      0.379648
Co	      4.14425      8.18362      8.21066         0.141762      0.293355     -0.095831
Co	      2.10572      4.07780      2.07861         0.051626      0.071300      1.045741
Ni	      8.26636     10.20929     10.23000        -0.143087      0.031373      0.109150
Ni	      4.14102      4.11840      4.07589         0.262161     -0.159158     -0.127068
Ni	      8.21705      6.18179      6.16246         0.030824      0.024874     -0.111744
Ni	      6.21502      6.16352      8.29538        -0.062159     -0.069505      0.018490
O	      8.25482      8.33427     10.22120        -0.007100     -0.228635     -0.036990
O	      2.23695      2.20920      2.02030         0.041491     -0.200389     -0.022689
O	      4.06118      4.01109      2.01536         1.127179     -0.262144     -0.304507
O	      4.09743      1.98107      3.98034        -0.010763      0.070823     -0.123283
O	      6.25627      4.11042      4.26135         0.007975      0.030698     -0.072209
O	      6.12285      2.14818      6.21462         0.117643      0.061203     -0.084750
O	      8.18905      4.14241      6.24459         0.016580     -0.047924     -0.575951
O	      2.15279      4.10835      3.89816        -0.411373      0.030581      0.277492
O	      4.18970      6.13909      4.26111        -0.032538      0.246221     -0.038850
O	      4.20019      4.11692      6.14805        -0.142606      0.172728      0.085244
O	      6.10796      6.00869      6.21140        -0.090831      0.099488     -0.055834
O	      6.34932      4.09185      8.11531        -1.086394     -0.066014     -0.348501
O	      8.23282      6.01509      8.18533         0.117030      0.034999      0.114224
O	      2.20113      6.12789      6.17895        -0.002704      0.021703     -0.059348
O	      4.15012      8.15495      6.30932         0.010543     -0.135224      0.120269
O	      4.13969      6.26285      8.13223        -0.112239      0.025599     -0.108138
O	      5.99466      8.17050      8.22314        -0.092022      0.065470      0.016202
O	      6.04096      6.11957     10.34476         0.121016     -0.047769     -0.280254
