# total energy = -92.24197162 eV
 
CRYSTAL
PRIMVEC
0.000211 2.115119 2.113325 
6.344877 6.408072 -4.288516 
-4.237763 2.144790 -2.143346 
PRIMCOORD
16 1
Li	     -2.17603      4.37982     -2.20891         0.139361     -0.101149      0.120681
Li	      2.20170      6.49336     -4.32145        -0.113013     -0.245920      0.270027
Li	     -0.00655      4.36217     -0.03006        -0.007592      0.118216     -0.111064
Li	      4.29677      6.63558     -2.29048        -0.308937     -0.089662      0.026113
Mn	     -0.10000      0.05415     -0.05050         3.606320      1.555455     -0.332620
Mn	     -0.01115      6.55933     -2.22149         0.752251     -0.480581      0.219316
Ni	     -2.02075      2.33988     -0.11619        -0.732789     -0.160828     -0.051260
Ni	      2.17382      4.37980     -2.20932        -0.471277      0.421510     -0.119599
O	      4.47108      6.58070     -4.40366        -2.184237     -0.205235      0.310794
O	      0.00548      6.44147     -4.27136         0.123462     -0.479653      0.669292
O	      2.14967      8.88508     -4.53958        -0.683190     -1.635349      0.739930
O	     -2.31456      4.33304      0.00336         0.223584      0.174113     -0.344865
O	     -0.00578      4.49080     -2.31939         0.449973      0.613437     -0.454663
O	      2.02734      6.54722     -2.20976        -0.665712     -0.273746      0.043522
O	     -0.00032      2.06901      0.10111        -0.036167      0.519040     -0.473981
O	      2.30973      4.39469     -0.05624        -0.092038      0.270350     -0.511625
