# total energy = -206.51349812 eV
 
CRYSTAL
PRIMVEC
0.044715 6.165195 6.258110 
6.152548 0.028630 6.274427 
4.093929 4.113220 0.026851 
PRIMCOORD
36 1
Li	      4.14758     10.19904      6.35445         0.001597      0.044575      0.119113
Li	      2.08179      2.06836      0.06457        -0.021797     -0.022525      0.324782
Li	      2.06636      6.14858      8.27222        -0.066852      0.228372      0.001634
Li	      4.21800      8.29130      8.33854        -0.131061      0.078104     -0.136850
Li	      8.22787      4.11926      8.32413        -0.012424     -0.170889      0.005650
Li	      2.02186      2.14833      4.19769        -0.016808     -0.019130     -0.332426
Li	      4.16954      8.18348      4.24433         0.044772      0.011041     -0.064017
Li	      6.16345      8.25407      6.34303        -0.021744      0.038487      0.060538
Li	      6.14479      6.24905      8.33244         0.077110     -0.083572      0.049758
Cr	      4.15513      6.19163     10.40617        -0.083172     -0.053583     -0.057048
Cr	      2.05661      6.06655      4.25815        -0.147183     -0.292434     -0.108016
Co	      6.19907      8.21955     10.41771         0.133550     -0.025963     -0.145169
Co	      0.11773      2.01882      2.05122        -0.830966     -0.026882      0.307956
Co	      6.14542      4.10705      6.27788         0.075598     -0.139322      0.021286
Co	      4.16508      6.33223      6.34072        -0.172729      0.222737      0.013417
Co	      8.22939      8.24889      8.39847         0.178298     -0.160334      0.076590
Cu	      8.13795      6.16389      6.30415         0.115694     -0.016739     -0.001478
Ni	      4.10650      4.08544      4.12629        -0.037287     -0.025987     -0.214041
O	      4.15848      8.12144      6.35118         0.063964     -0.311579     -0.103911
O	      1.85744      2.08368      2.10452         0.801592      0.027839     -0.061601
O	      4.08931      4.27337      2.10850         0.080919      0.122012     -0.011234
O	      4.22452      2.02912      4.04448         0.129414     -0.136479      0.450616
O	      6.17356      4.00808      4.31395         0.131338     -0.110229      0.099534
O	      6.03749      2.17923      6.19819        -0.061335      0.143608      0.135582
O	      8.08082      4.16259      6.18424        -0.111722      0.134864     -0.208997
O	      2.05609      4.24165      4.16708        -0.065409      0.164130      0.156361
O	      4.03428      6.12578      4.26128         0.125779      0.180006     -0.100895
O	      4.18984      4.14560      6.38850         0.070474      0.045568      0.067860
O	      6.18369      6.05115      6.28443        -0.128715     -0.075374      0.011808
O	      6.09562      4.01152      8.20866        -0.086139     -0.004386     -0.005735
O	      8.39672      6.31779      8.57465        -0.246313      0.161232     -0.273859
O	      2.11684      6.20795      6.10852         0.164795     -0.008876     -0.033345
O	      4.13264      6.05356      8.38320         0.071995     -0.034642     -0.146642
O	      6.33139      8.23973      8.50755         0.002558     -0.002398      0.121381
O	      6.19955      6.27151     10.44856        -0.004143      0.059155      0.044713
O	      8.16034      8.23725     10.36011        -0.023647      0.059593     -0.063317
