# total energy = -205.14060467 eV
 
CRYSTAL
PRIMVEC
0.046672 6.144064 6.186650 
6.261850 0.041013 6.192183 
4.175485 4.100853 0.026198 
PRIMCOORD
36 1
Li	      0.05750      0.09535      0.04977         0.075577     -0.023804     -0.053271
Li	      2.03192      2.00980      0.06348         0.019100     -0.050983      0.006127
Li	      2.09525      6.15531      8.14322        -0.054103      0.086076     -0.054428
Li	      6.29679      8.20174     10.26302        -0.005079      0.072048      0.061236
Li	      2.19757      4.09363      2.03222        -0.016858     -0.013141     -0.009185
Li	      4.19768      4.06620      4.09554         0.070314      0.012026      0.052700
Li	      4.19587      2.07921      6.18889         0.042111     -0.011616      0.008239
Li	      2.21907      4.15922      6.20830         0.008254      0.095282     -0.124489
Li	      4.13899      6.09736      6.28752        -0.108406      0.057206     -0.087544
Cr	      8.31443      4.12435      4.14758        -0.005540     -0.263540      0.092398
Cr	      6.25953      4.09206      6.22388         0.124928     -0.267478     -0.135886
Co	      4.23689      8.28241      8.16983        -0.077082      0.387427     -0.642157
Co	      4.23576      6.09421      2.10332        -0.018898      0.246866     -0.204005
Co	      4.23773      8.20405      4.40013         0.010504      0.118196     -2.722708
Co	      2.14200      6.11732      4.18625        -0.024248     -0.023597      0.215454
Co	      8.36977      8.22216      8.27048         0.418226     -0.129600      0.076451
Cu	      2.10320      2.09192      4.14632        -0.163948      0.066060     -0.013832
Cu	      6.30241      6.19746      8.21532        -0.023310     -0.301762     -0.117934
O	      6.29141      6.04999      6.21829        -0.001119      0.119470      0.189148
O	      2.12693      6.16376      5.98729         0.062549      0.008494      0.166681
O	      1.96059      2.08092      2.14609         0.628562      0.117419     -0.096637
O	      4.19295      4.20768      2.06013        -0.063347     -1.130508      0.057216
O	      4.11692      2.00538      3.97502         0.383704      0.191759     -0.536543
O	      6.31489      4.14529      4.27353        -0.059210     -0.365019      0.105660
O	      6.26899      2.19022      6.34011        -0.045259      0.092368     -0.022970
O	      8.18652      4.14132      6.13267        -0.046704      0.038995      0.027166
O	      2.02836      4.15098      4.12821        -1.011651     -0.033462      0.437546
O	      4.21497      6.18913      4.04543         0.088201      0.693406      0.568161
O	      4.35423      4.10219      6.32394        -0.058350     -0.036542      0.021225
O	      6.16541      4.10666      8.26005        -0.152948      0.499129      0.296173
O	      8.55929      6.27818      8.43248        -0.171024      0.233693     -0.202264
O	      4.18283      8.22056      6.20046         0.084683     -0.107126      1.859823
O	      4.11558      6.07319      8.31460         0.056013      0.185629     -0.051404
O	      6.42732      8.13285      8.22492        -0.322047     -0.026121      0.090342
O	      6.26916      6.13213     10.22599        -0.240733     -0.786284      0.399057
O	      8.43013      8.21907     10.21662         0.597141      0.249037      0.344454
