# total energy = -205.19276346 eV
 
CRYSTAL
PRIMVEC
-0.055111 6.191329 6.238434 
6.094195 -0.005875 6.189537 
4.072621 4.104856 -0.014000 
PRIMCOORD
36 1
Li	     10.09232      4.13081      6.24480         0.099190     -0.039249     -0.055205
Li	      4.05767      2.09629      2.07437         0.048205      0.014976     -0.035967
Li	      6.04258      2.08145      4.18652         0.102612     -0.075024      0.017574
Li	     -0.00499      2.04690      2.05226        -0.081863     -0.005120      0.113904
Li	      8.08294      4.15442      8.17219        -0.004781      0.085886      0.063892
Li	      2.06036      1.99813      4.11889        -0.119104      0.085434      0.064769
Li	      8.12284      6.07120      6.18503        -0.149336      0.077596      0.090763
Li	      6.16668      4.11903      6.18252        -0.081224      0.041343     -0.023665
Li	      6.11065      6.11889      8.24643         0.013598      0.004802      0.076157
Cr	      4.06806      6.20936      6.21849        -0.022492      0.050707     -0.171427
Cr	      8.11971      8.19141      8.27242         0.213137     -0.652583      0.102337
Co	      7.92554      2.16151      6.28352         0.884253      0.073034      0.119158
Co	      4.15225      3.90415      4.06932        -0.126620      0.066495     -0.069997
Co	     -0.01708      4.12143      4.13499         0.100061     -0.014018     -0.006109
Co	      8.04072      6.16529     10.32524         0.133059     -0.063465     -0.155792
Co	      1.98095      4.14746      6.21645        -0.030663      0.071569     -0.171967
Ni	      6.09224      4.12065      2.06045        -0.135510     -0.050987     -0.015348
Ni	      4.05310      0.08551      4.17308         0.319798     -0.227805     -0.126270
O	      2.06180      1.91356      1.98276        -0.257449      0.102429     -0.426248
O	      4.18459      4.11997      2.15607        -0.224586     -0.035586      0.099048
O	      4.05528      2.09852      4.15491         0.043498      0.431612      0.043104
O	      6.08954      4.12725      4.08637        -0.261158     -0.042310      0.116320
O	      6.15590      2.04114      6.16310         0.288846      0.201016      0.225675
O	      8.15131      4.06081      6.14243        -0.344004     -0.378514      0.190042
O	      1.94357      4.24741      4.24893         0.011077     -0.025779      0.091226
O	      3.88131      6.22294      4.22054         0.174065     -0.037792      0.146502
O	      3.94182      4.18444      6.23881        -0.018561     -0.027902      0.080179
O	      6.00926      6.33934      6.21281         0.040172      0.017407      0.028420
O	      6.00347      4.10344      8.40995        -0.184088      0.154399      0.011254
O	      8.08948      6.21890      8.46882        -0.012321      0.427115     -0.274480
O	      2.03336      6.12795      6.09078         0.061553      0.076598      0.012826
O	      4.10078      8.18730      6.08241        -0.278417      0.052669     -0.016225
O	      3.92802      6.12779      8.25824         0.177172     -0.099676     -0.100571
O	      6.09464      8.36230      8.13051         0.116578     -0.142600     -0.014123
O	      6.16297      6.02582     10.34925        -0.370661     -0.032461     -0.003880
O	      8.20030      8.16054     10.31906        -0.124035     -0.084214     -0.025876
