# total energy = -208.84629179 eV
 
CRYSTAL
PRIMVEC
-0.020546 6.249084 6.144560 
6.104029 0.023422 6.100769 
4.077554 4.144577 0.007293 
PRIMCOORD
36 1
Li	      6.05947      4.10266      2.10725        -0.010781      0.007396      0.000557
Li	      4.15803      8.38299      8.22172        -0.012112      0.022091      0.010019
Li	      6.06373      2.17530      4.00135        -0.033717      0.018364      0.016584
Li	      4.06345      6.17652      2.04090         0.015853      0.007685      0.007609
Li	      2.04321      4.11285      2.07755         0.000903     -0.012119      0.011186
Li	      6.09902      6.19196      4.04618         0.011890      0.023471      0.029461
Li	      8.08209      6.26432      6.14772        -0.018911     -0.030875     -0.042330
Li	      6.06141      4.23855      6.10616         0.018411      0.029139      0.005123
Li	      6.16289      8.22861      6.16387        -0.005946     -0.001501      0.008896
Cr	      4.08674      4.12497      0.06945         0.066755     -0.031856      0.036168
Cr	      1.98567      2.08176      0.13115        -0.023481     -0.113372      0.133993
Co	      7.99143      4.31588      4.07666         0.015234      0.262229     -0.018432
Co	      4.08760      4.07458      4.05000         0.019407      0.058812     -0.000223
Co	      6.12033      4.19498     10.16520         0.120714     -0.397264      0.049413
Co	      4.08268      6.24415      6.16159         0.121192     -0.030240     -0.074185
Co	      4.04835      4.18656      8.13825        -0.093238      0.065911     -0.124393
Co	      6.10327      6.26892      8.15146        -0.070132     -0.004961     -0.230557
Cu	      8.14826      6.24858     10.16178         0.088742     -0.058605      0.017421
O	      1.97080      4.22339      4.08878        -0.101469      0.125757     -0.012292
O	      2.06603      2.06241      1.88660        -0.002147      0.025151     -0.102218
O	      4.07406      4.14294      2.00519        -0.004694     -0.043579     -0.019434
O	      4.06543      1.98330      4.09122         0.009088     -0.280601     -0.006455
O	      6.10018      4.15326      4.07775         0.081571     -0.074800     -0.002285
O	      6.24289      1.96990      6.04697         0.127784     -0.004877      0.002631
O	      8.19917      4.07286      6.09435         0.006103     -0.005798     -0.086556
O	      4.03370      6.35177      4.21645         0.030472      0.120397      0.054920
O	      4.06697      4.33648      6.19361         0.019198      0.051377     -0.004064
O	      5.97258      6.25377      6.26647        -0.045422      0.013041      0.093760
O	      6.01174      4.28278      8.26173        -0.034647      0.091539      0.009572
O	      8.03701      6.40867      8.19695        -0.066417      0.053429     -0.057534
O	      2.05292      6.33367      6.07675        -0.110180      0.075259      0.106281
O	      3.96261      8.28506      6.03467        -0.086948      0.055408     -0.058586
O	      4.15761      6.13531      8.10346         0.033732     -0.023966      0.121801
O	      6.20655      8.19065      8.17541         0.118302     -0.059246      0.034995
O	      6.10040      6.12031     10.17916        -0.095930      0.099083     -0.001798
O	      8.26136      8.42665     10.16180        -0.089183     -0.031877      0.090951
