# total energy = -208.42625177 eV
 
CRYSTAL
PRIMVEC
0.001702 6.129904 6.276756 
6.070283 0.008329 6.269823 
4.071420 4.107016 -0.019266 
PRIMCOORD
36 1
Li	      6.11009      6.09819     12.44098         0.078430     -0.005039      0.024584
Li	      6.08458     10.13334      8.43954        -0.028287      0.112876      0.140608
Li	      6.06031      8.18071     10.38506        -0.101901      0.104080      0.008558
Li	      6.09974      6.16909      4.27556         0.023648     -0.012782     -0.042727
Li	      4.05417      2.07546      6.21858        -0.022631      0.121813     -0.013554
Li	      6.04363      4.14611      6.28475        -0.125928      0.001185     -0.071598
Li	      6.09491      4.13705     10.36160         0.110853     -0.062301     -0.075720
Li	      6.10535      8.18348      6.28613         0.074176     -0.015294     -0.045992
Li	      8.10120      8.21066      8.36730         0.031430     -0.033070     -0.072660
Cr	      8.08020      8.21317     12.48330        -0.178618     -0.276087      0.405478
Cr	      6.08453      2.07169      8.35438        -0.045420     -0.220653      0.142347
Co	      4.05020      2.06847      2.12011         0.151284      0.015208      0.178977
Co	      7.99646      4.13158      4.18650        -0.150439      0.119850     -0.230436
Co	      4.10833      4.09273      4.19040        -0.991371      0.262590      0.163016
Co	      8.13013      6.16286     10.42028         0.259102     -0.606424     -0.173348
Co	      4.08115      6.10193      6.28177         0.190235     -0.350419     -0.216913
Co	      6.06875      6.19312      8.38469         0.275284     -0.260507     -0.482748
Ni	      8.09576      4.11614      8.33637         0.037166      0.135094      0.201205
O	      2.04653      2.06465      1.96179         0.081685     -0.071517     -0.194015
O	      4.06975      4.05761      2.21221         0.086567     -0.033479     -0.133508
O	      4.02340      2.17361      4.07298        -0.061946     -1.366604     -0.117439
O	      5.98562      4.11978      4.19774         2.082694      0.275005     -0.052847
O	      6.21350      1.95316      6.37811         0.261140     -0.008451     -0.077245
O	      8.17475      3.97763      6.19563        -0.130128      0.004705     -0.946271
O	      2.17697      4.22467      4.11941        -0.211020      0.264911      0.168817
O	      4.01151      6.06667      4.08857        -0.084250      0.086402     -0.028571
O	      4.05289      4.21896      6.09480        -0.014091      0.204732      0.101565
O	      5.96471      6.14889      6.41420        -0.160975      0.112082      0.631682
O	      6.08381      4.05287      8.34970        -0.148643      0.381597      0.002988
O	      8.14563      6.16381      8.43068         0.127086      0.142931      0.213273
O	      2.16010      6.19736      6.08585        -0.063889      0.178146     -0.146046
O	      3.96946      8.04278      6.44742        -0.083276      0.036969     -0.006798
O	      4.04518      6.28284      8.46987        -0.390790     -0.070536      1.035141
O	      5.95194      8.15294      8.34018        -0.119671     -0.456971      0.063635
O	      6.18415      6.10806     10.34053        -0.745456      0.183038     -0.416321
O	      8.12015      8.13079     10.55121        -0.012051      1.106920      0.062878
