# total energy = -210.69487662 eV
 
CRYSTAL
PRIMVEC
0.059333 6.153561 6.177526 
6.282288 0.027554 6.211208 
4.190640 4.126335 0.016152 
PRIMCOORD
36 1
Li	      2.06134      2.06688      0.11174         0.004486     -0.050886     -0.006171
Li	      6.37423     10.19152      8.28962         0.001659     -0.062195     -0.031619
Li	      4.29462      8.21806      8.29198         0.061046     -0.022009      0.007743
Li	      6.21734      2.11644      4.05250         0.009568     -0.016120     -0.031823
Li	      6.31066      2.11675      8.19588        -0.018197      0.020911      0.003967
Li	      8.39250      6.21135      6.26567        -0.047847      0.013783      0.021054
Li	      6.30165      4.03425      6.22965        -0.004918     -0.007058      0.033206
Li	      8.33544      8.20761      8.23296        -0.090965     -0.017375      0.010637
Li	      6.37753      6.23048      8.22578         0.035632      0.013967     -0.046666
Cr	     10.41950      4.23542      6.27223         0.118994      0.226439     -0.010187
Cr	      2.11636      2.04849      4.11676         0.150341      0.011064      0.126549
Co	      4.23737      6.15654     10.24688        -0.035228     -0.160291     -0.308473
Co	      8.35797      4.14761      8.28147        -0.142392      0.095703      0.092158
Co	      4.27566      4.07059      4.08809         0.081004     -0.188177      0.112138
Co	      6.34153      4.16773     10.30322         0.023690      0.016134      0.050382
Co	      8.42718      6.30356     10.28693         0.012247      0.117219      0.035436
Co	      6.33947      8.23125      6.32608         0.002376      0.054923     -0.608360
Co	      4.24527      6.16605      6.34970         0.091714     -0.130096      0.078517
O	      2.09258      2.21747      2.13846         0.005724      0.134239     -0.042358
O	      4.03200      4.11115      2.05488        -0.172139      0.102643     -0.119379
O	      4.10786      1.96470      4.14370        -0.086696     -0.370425      0.029259
O	      6.32600      4.18780      4.16388         0.740701      0.022824     -0.046094
O	      6.34422      1.89949      6.16710        -0.045725     -0.194754      0.024085
O	      8.52095      4.10738      6.32176         0.050416      0.015926     -0.109219
O	      2.05687      4.10476      4.06197        -0.130566     -0.109847     -0.194192
O	      4.24299      6.28675      4.27864         0.115131      0.069414     -0.001641
O	      4.10886      4.15545      6.08551        -0.328878      0.299332      0.343646
O	      6.26064      6.31776      6.15810        -0.131450     -0.006523      0.057859
O	      6.47871      4.14456      8.38089         0.215674     -0.013452      0.000988
O	      8.41433      6.04072      8.33544        -0.000108     -0.274916     -0.104334
O	      2.04126      6.04783      6.15683        -0.022931     -0.041910      0.066981
O	      4.35323      8.30240      6.05187         0.151420     -0.005255      0.329069
O	      4.20259      6.17797      8.14192         0.078184      0.016478      0.571641
O	      6.32713      8.22449      8.18829        -0.022804     -0.010015     -0.242134
O	      6.28052      6.10209     10.41950        -0.718594     -0.056139     -0.096526
O	      8.62422      8.33902     10.30253         0.049432      0.506442      0.003863
