# total energy = -191.48492551 eV
 
CRYSTAL
PRIMVEC
0.027702 6.087789 6.268246 
6.189117 0.005291 6.289893 
4.127810 4.074890 0.002101 
PRIMCOORD
36 1
Li	      2.09682      2.04687      0.07564        -0.024439     -0.041557     -0.026209
Li	      2.11568      6.09619      8.31138        -0.010920     -0.008743      0.043334
Li	      4.17498      6.06905     10.45928         0.001272     -0.005776     -0.008642
Li	      2.11159      2.01633      4.20287         0.060061     -0.002834     -0.007760
Li	      4.14479      4.05102      4.21025         0.010808      0.004885      0.014701
Li	      8.21465      6.08452      6.28924         0.033392      0.005508     -0.069047
Li	     10.30191      8.17279     10.50110        -0.002300     -0.010354     -0.027891
Li	      6.19495      8.09410      6.34901         0.033340     -0.000963     -0.006289
Li	      6.16540      6.10539      8.27458        -0.003343     -0.016642      0.001181
Cr	      6.13404      2.10673      4.18354        -0.018111      0.011418      0.016767
Cr	      2.10318      6.04910      4.20057         0.052132     -0.018264      0.122923
Cu	      4.16722      6.11772      6.27438        -0.111944      0.050703     -0.094590
Ni	      4.11609      4.07322      0.01266         0.006336     -0.076180     -0.058381
Ni	      4.15795      8.11977      8.36557        -0.011516     -0.033257      0.009418
Ni	      0.05899      2.02210      2.08291         0.102178     -0.074162      0.133984
Ni	      8.24539      4.08800      8.38354        -0.036611      0.041178      0.044640
Ni	      6.22757      4.08986      6.27773         0.020970     -0.027947     -0.076295
Ni	      4.11873      4.07228      8.34463        -0.018582      0.066482     -0.013214
O	      4.13405      6.09105      8.21579         0.002086      0.054702      0.147740
O	      2.06697      2.15629      2.16331        -0.010926     -0.161270     -0.019580
O	      4.11832      4.10727      2.00517         0.054673     -0.129915      0.166247
O	      4.28698      1.99936      4.10107         0.061226     -0.001893      0.132947
O	      6.26547      3.92992      4.24322        -0.015878     -0.012881     -0.055049
O	      6.15738      2.08619      6.22155         0.005281      0.202755     -0.068853
O	      8.25663      4.07814      6.47137        -0.081781      0.002753     -0.140829
O	      2.02518      4.20696      4.02374        -0.016791      0.034272      0.138440
O	      3.98381      6.13945      4.26343        -0.102605     -0.033716     -0.066594
O	      4.19897      4.20609      6.29944        -0.029515     -0.239396     -0.035458
O	      6.20940      6.02587      6.21789        -0.044572      0.023455      0.024366
O	      6.16184      3.98663      8.33159        -0.017749      0.247270      0.019694
O	      8.33734      6.07049      8.47977        -0.032239      0.065552     -0.044376
O	      2.04597      6.05246      6.14126         0.221472      0.015120     -0.001319
O	      4.16789      8.03918      6.35721        -0.018603      0.108300     -0.064937
O	      6.21725      8.12536      8.49563         0.021736      0.010287     -0.047232
O	      6.30721      6.18280     10.56319        -0.025206      0.006878     -0.122745
O	      8.15973      8.02219     10.39984        -0.053333     -0.055766      0.038908
