# total energy = -190.50383898 eV
 
CRYSTAL
PRIMVEC
0.012918 6.155901 6.305385 
6.158087 0.034446 6.283996 
4.126655 4.110848 0.001814 
PRIMCOORD
36 1
Li	      4.10765      2.08304      2.14612        -0.113068      0.014518      0.030596
Li	      6.16288      2.15005      8.36399         0.026689      0.006065      0.099219
Li	      8.19902      4.10273      8.35805         0.066777     -0.077420      0.068520
Li	      6.17990      6.22920      4.26832         0.005770     -0.023076      0.051861
Li	      4.12756      4.05779      4.24426        -0.022547      0.045122     -0.074089
Li	      4.06650      2.11646      6.25324        -0.106885      0.045197      0.028269
Li	      6.15007      4.18164      6.34576         0.044340      0.073075     -0.011523
Li	      0.04738      4.08813      4.15331         0.032198     -0.021317     -0.042002
Li	      2.12020      4.02640      6.26005         0.000621     -0.032750     -0.081833
Cr	      6.09552      4.18409      2.15092        -0.131560      0.296421      0.067477
Cr	      2.13224      6.03363      4.15031         0.201392     -0.428632     -0.134591
Cu	      8.22137      2.11005      6.30285         0.087071     -0.060751     -0.031969
Cu	      4.14990      4.10894      8.35078         0.043408     -0.096307     -0.113210
Ni	      4.13459     10.23812      6.29987         0.085355     -0.125194      0.006235
Ni	      8.22096      4.17059      4.22069         0.028891      0.106652     -0.100634
Ni	      6.16097      2.10659      4.19692        -1.337297      0.122705      0.127998
Ni	      4.14937      6.17522      6.29424         0.072137      0.183929     -0.163300
Ni	      6.18286      6.16779      8.34312        -0.020265      0.035761      0.010326
O	      6.08247      4.19732      8.42623        -0.213020     -0.349705     -0.120399
O	      3.96681      8.16128      6.29514         0.040992      0.072147      0.032995
O	      2.07612      1.88422      2.16327         0.038840      0.212583     -0.099785
O	      4.28582      4.06128      2.00989         0.054304     -0.042847      0.170891
O	      4.29605      2.03957      4.24630        -0.373216      0.114838      0.072533
O	      6.17714      4.11688      4.06854        -0.058563      0.184039      0.040187
O	      6.33028      2.03806      6.17547         0.053525      0.175433      0.118430
O	      8.29318      4.02010      6.22582        -0.294632     -0.158032      0.210978
O	      2.05451      4.24552      4.17168        -0.001974      0.106813      0.067911
O	      3.93575      6.22195      4.25789        -0.027183     -0.075388     -0.209249
O	      4.11773      4.25210      6.39403         0.008655     -0.396708      0.366129
O	      6.06796      6.22691      6.36008         0.282559      0.050963     -0.209327
O	      8.23588      6.22153      8.47700         0.062049     -0.100587      0.055133
O	      2.10221      6.21836      6.29003        -0.060336      0.213267     -0.006852
O	      4.02928      6.10836      8.42020        -0.138880      0.129506      0.080980
O	      6.24117      8.29578      8.48475         0.383088      0.003603     -0.171534
O	      6.27851      6.22968     10.47827         0.076709     -0.174542      0.050479
O	      8.08890      8.18490     10.38244         1.204057     -0.029378     -0.186849
