# total energy = -190.58376657 eV
 
CRYSTAL
PRIMVEC
-0.014262 6.136998 6.135304 
6.251672 0.005694 6.115265 
4.175128 4.085342 -0.003540 
PRIMCOORD
36 1
Li	      6.21035      6.11102     12.19122        -0.064354      0.030448     -0.066697
Li	      2.09738      6.09869      8.14799         0.006715     -0.001856      0.037975
Li	      8.35259     10.20820     10.24491         0.014085     -0.003190      0.019818
Li	      6.24531      8.17344     10.18041         0.018286     -0.008633      0.005945
Li	      8.35477      4.09625      8.09093         0.003291      0.021620     -0.031571
Li	      8.34157      6.09801      6.10577         0.017648     -0.049804     -0.015240
Li	      6.27226      4.10710      6.10400         0.054984     -0.019087     -0.031599
Li	      2.12183      4.13612      6.15802         0.038913      0.006249     -0.020074
Li	      4.09763      6.11491      6.18960         0.030192     -0.022009     -0.010469
Cr	      6.25410      2.06502      8.08536         0.049795      0.035614     -0.327870
Cr	      6.28953      6.09783      4.17622        -0.106952     -0.032885      0.058263
Cu	      4.20575      8.14103      8.12020         0.018134      0.005638      0.017584
Cu	      4.17416      4.09267      4.15237         0.102572     -0.051087      0.094024
Cu	      8.27574      6.14544     10.22686         0.048293     -0.100384      0.051968
Ni	      8.34619      2.07363      6.11184        -0.136790      0.053008      0.110639
Ni	      4.14920      8.19735      4.15086        -0.006987      0.006176      0.027495
Ni	      4.09278      4.12979      8.11587        -0.007580      0.083481     -0.130363
Ni	      6.25804      6.13170      8.09790         0.007493     -0.067962     -0.096011
O	      2.05228      6.30010      6.04726         0.005953     -0.212970     -0.036603
O	      4.01074      8.19611      6.18186         0.149363     -0.016163      0.047944
O	      6.23460      8.15644      8.14069        -0.096269      0.131351     -0.006062
O	      1.99875      2.07474      2.16133        -0.019147      0.024996      0.115567
O	      4.14970      4.20121      2.23859        -0.011304      0.006714     -0.209500
O	      4.06902      2.14001      4.00972         0.038903     -0.043866      0.029391
O	      6.24172      4.26178      4.08485        -0.122222     -0.008590     -0.029997
O	      6.37497      2.02060      6.26220        -0.123656     -0.034065      0.254457
O	      8.34321      3.94437      6.09662         0.002448      0.150120     -0.011089
O	      2.00730      4.03986      4.12429         0.266786     -0.007226     -0.025682
O	      4.21262      6.09816      4.01959         0.016741      0.034175      0.065028
O	      4.19502      4.06952      6.03884         0.018923     -0.008526      0.094469
O	      6.27277      6.14103      6.00033         0.021838      0.021807     -0.069860
O	      6.16419      3.97962      8.22240         0.083820     -0.113778     -0.088542
O	      8.40272      6.17689      8.18284         0.032221     -0.155688      0.047046
O	      4.22444      6.13023      8.19463        -0.104300      0.145803      0.012933
O	      6.34235      6.08907     10.13107        -0.115371      0.123860      0.078803
O	      8.37737      8.10942     10.16197        -0.132465      0.076707      0.037880
