# total energy = -191.06828409 eV
 
CRYSTAL
PRIMVEC
0.048772 6.105052 6.194295 
6.287500 0.054697 6.188390 
4.221433 4.095937 0.006692 
PRIMCOORD
36 1
Li	      8.34826      2.14887      6.24431        -0.030189     -0.018846      0.090661
Li	      4.11817      2.02405      2.02673        -0.054424     -0.044721      0.000393
Li	      8.37022      4.18129      4.20837         0.032752      0.018923     -0.037932
Li	      0.08976      2.02329      2.02834         0.080188     -0.005638     -0.116199
Li	      6.33937      6.11834      4.17203        -0.020319     -0.044084     -0.044197
Li	      8.38199      6.12088      6.17686        -0.006371     -0.007871      0.032816
Li	      6.44331      4.16680      6.17952         0.032024      0.058630      0.150749
Li	      4.32728      6.16031      6.21510         0.031867     -0.021533      0.082793
Li	      6.31081      6.15763      8.13314        -0.055449      0.086616      0.036422
Cr	      4.22049      4.07220      4.16026        -0.208972      0.218743     -0.090207
Cr	      4.32600      4.09263      8.23504        -0.226841      0.156904     -0.208272
Cu	     10.47143      4.15662      6.20047        -0.112606      0.007293      0.218167
Cu	      2.13251      0.08423      2.08821        -0.250490      0.040538     -0.113515
Cu	      6.29607      2.09894      4.16787        -0.179831      0.030185     -0.361643
Cu	      2.14566      6.11445      4.12793        -0.013131     -0.087691     -0.059604
Ni	      8.37710      4.11835      8.18327         0.119626     -0.289206      0.051059
Ni	      4.27656      8.09326      4.15290         0.106175      0.200025     -0.088378
Ni	      6.32107      8.14745      6.19844         0.157708     -0.108173      0.356080
O	      2.04727      5.98495      6.14096         0.087745      0.291607      0.351060
O	      4.42158      8.20242      6.17014        -0.230398      0.131396     -0.052755
O	      4.14523      6.00028      8.27999         0.407465     -0.186198      0.153949
O	      6.42297      6.18822     10.39162        -0.065636     -0.149493     -0.202136
O	      2.11435      1.97236      2.06345         0.043098      0.660506      0.061073
O	      4.28358      4.12910      2.15764        -0.251129     -0.091255      0.202168
O	      4.21101      2.24500      4.10913         0.394824     -0.200770      0.023500
O	      6.17176      4.08104      4.22522         0.069713      0.063623     -0.399992
O	      6.30812      2.01504      6.05256        -0.011897     -0.122742      0.700981
O	      8.51176      4.12267      6.24664         0.059132      0.050397     -0.321273
O	      2.16341      4.12855      4.03506         0.094792     -0.053412      0.038125
O	      4.14077      6.01651      4.15202         0.023590     -0.110132      0.021870
O	      4.04904      4.09187      6.16124         0.156646      0.029480     -0.056949
O	      6.31117      6.30067      6.20202         0.020712     -0.268153     -0.143742
O	      6.20587      4.13239      8.24757        -0.071642     -0.006167     -0.027822
O	      8.37171      6.27700      8.29816         0.039242      0.167236      0.095291
O	      6.49671      8.32733      8.38305         0.210841     -0.597315     -0.439976
O	      8.55216      8.13610     10.22070        -0.378817      0.201298      0.097431
