# total energy = -91.84807109 eV
 
CRYSTAL
PRIMVEC
0.000212 2.125436 2.123634 
6.375828 6.439331 -4.309436 
-4.258435 2.155252 -2.153801 
PRIMCOORD
16 1
Li	     -2.19730      4.42265     -2.23051         0.166757     -0.110890      0.130480
Li	      2.22322      6.55686     -4.36371        -0.139913     -0.294282      0.317640
Li	     -0.00661      4.40483     -0.03035        -0.000467      0.146001     -0.134423
Li	      4.33879      6.70048     -2.31288        -0.377828     -0.123242      0.052506
Mn	     -0.12175      0.06520     -0.06150         4.523325      1.865751     -0.376624
Mn	     -0.01126      6.62347     -2.24322         0.861531     -0.546449      0.273111
Ni	     -2.00941      2.39417     -0.13835        -0.843219     -0.170419     -0.065862
Ni	      2.19508      4.42264     -2.23093        -0.534123      0.481082     -0.157926
O	      4.51481      6.64506     -4.44673        -2.896175     -0.208141      0.321391
O	      0.00553      6.50447     -4.31313         0.116273     -0.538103      0.738256
O	      2.17070      8.97198     -4.58397        -0.801256     -2.017937      0.881201
O	     -2.33719      4.37541      0.00340         0.334665      0.162205     -0.366062
O	     -0.00583      4.53472     -2.34207         0.534885      0.681643     -0.509695
O	      2.04718      6.61125     -2.23137        -0.735840     -0.315974      0.069374
O	     -0.00032      2.08925      0.10210        -0.080887      0.648484     -0.570359
O	      2.33232      4.43767     -0.05679        -0.127727      0.340272     -0.603006
