# total energy = -191.41494921 eV
 
CRYSTAL
PRIMVEC
0.042953 6.142661 6.213505 
6.244413 0.028644 6.227653 
4.171637 4.113079 0.010783 
PRIMCOORD
36 1
Li	      6.23626      0.11184      6.18513         0.028537      0.063906     -0.021489
Li	      4.18276      2.07119      2.10769         0.040692     -0.030332     -0.023027
Li	      6.29752      8.11482     10.36745         0.005916      0.043172      0.001635
Li	     10.35945      6.17020      8.29181        -0.006208      0.050880     -0.081371
Li	      8.33834      6.18485      6.30518         0.013880      0.068409      0.038596
Li	      8.30929      6.20259     10.30967        -0.044993     -0.028798     -0.001232
Li	      6.25400      8.19029      6.27688        -0.024936     -0.009011      0.046698
Li	      8.29713      8.15952      8.35424        -0.026284     -0.013472     -0.007831
Li	      6.37729      6.24176      8.35476        -0.016608      0.038264     -0.019696
Cr	      6.30231     10.17037      8.24341         0.161303     -0.266912     -0.052331
Cr	      6.28792      4.10274      6.26102        -0.055849      0.129596      0.207318
Cu	      4.26740      6.20020     10.36046         0.072755      0.058118      0.009573
Cu	      8.34412      4.20773      8.29735         0.129133      0.144508     -0.152232
Cu	      2.11302      2.08674      4.13822         0.063104     -0.124089      0.159593
Cu	      4.16991      4.11202      4.14196         0.056831     -0.069442      0.119036
Cu	      6.24556      4.12544     10.33950        -0.021457      0.007754     -0.017784
Ni	      2.12501      8.18641      6.21156        -0.056521     -0.115033      0.090918
Ni	      4.18812      6.14683      6.20656        -0.032745     -0.046507      0.215191
O	      8.35785      6.13719      8.30751         0.052003      0.096979      0.110858
O	      4.09906      8.02829      6.12313         0.164385      0.307551      0.103816
O	      6.27078      8.36100      8.32290        -0.004235      0.061956      0.026630
O	      6.13818      6.10556     10.38444         0.189528      0.258359     -0.011826
O	      8.45280      8.30326     10.45450        -0.090921     -0.038262     -0.225124
O	      2.07767      1.94697      2.05865         0.036438      0.100150      0.197042
O	      4.28555      4.10393      2.19274        -0.059511      0.044256      0.320774
O	      4.09495      2.09787      4.19560        -0.008156     -0.119917     -0.088646
O	      6.46515      4.19724      4.16509        -0.065799     -0.117628      0.004646
O	      6.37654      2.19130      6.19703        -0.194642     -0.181085     -0.008182
O	      8.29557      4.14427      6.34128         0.126194      0.044473      0.047636
O	      1.97993      4.04441      4.06899        -0.050198      0.096589     -0.082800
O	      4.27887      6.14139      4.19747        -0.062438     -0.035848     -0.264768
O	      4.29848      4.23494      6.11835        -0.116534     -0.434737     -0.371441
O	      6.19036      6.12612      6.14272         0.446236      0.096770     -0.036801
O	      6.35882      4.15132      8.27169        -0.197496     -0.023039     -0.314573
O	      2.15557      6.11872      6.31959        -0.561114     -0.073926     -0.098150
O	      4.00810      6.15607      8.19458         0.109709      0.016346      0.179344
