# total energy = -191.27800699 eV
 
CRYSTAL
PRIMVEC
-0.036498 5.944724 6.478484 
6.306808 -0.020578 6.462121 
4.219980 3.968495 -0.027717 
PRIMCOORD
36 1
Li	      8.35512      1.98242      6.44412        -0.044113      0.023284      0.007527
Li	      4.27784      1.98777      2.37735        -0.039579      0.024505      0.020928
Li	      4.25414      0.06408      4.39281         0.005549      0.072359     -0.087140
Li	      6.26749      1.97065      4.46186        -0.065740     -0.010952      0.010429
Li	      6.30271      1.93951      8.45763         0.025465      0.010653     -0.014353
Li	      2.28463      1.99596      4.31044         0.087578     -0.051591      0.002520
Li	      4.27892      1.96699      6.37075         0.058856      0.033629     -0.008436
Li	      6.33592      3.91342      6.27559        -0.016692     -0.038459      0.013997
Li	      8.35535      7.90634      8.55956        -0.003333      0.008773     -0.015597
Cr	      6.37623      4.04676      2.30680         0.127141     -0.063117      0.045616
Cr	     10.39509      7.91599     10.65011        -0.013473     -0.039924     -0.002271
Cu	      6.30891      0.02662      6.50810         0.044743     -0.066672     -0.053641
Cu	      8.39904      3.86035      8.45126         0.060813      0.124242     -0.076439
Cu	      4.23503      3.96507      4.36410         0.099536      0.141759      0.067117
Cu	      8.33377      5.90694     10.64317         0.037622      0.241131      0.108780
Cu	      6.26791      7.88938      6.44351         0.048619      0.016281     -0.141133
Cu	      6.22367      5.94479      8.53263        -0.009094     -0.114695      0.192332
Ni	      4.13011      5.95430      6.50279         0.075637      0.071773      0.014963
O	      8.25875      5.79018      8.57950         0.088521     -0.282774      0.001234
O	      4.22266      8.04757      6.23866         0.033897      0.071880     -0.066203
O	      4.14592      5.94906      8.50286        -0.109873      0.040070      0.090805
O	      6.32395      7.96901      8.44900        -0.033586      0.174652     -0.016924
O	      6.32488      5.90364     10.53223        -0.122911      0.125182      0.070199
O	      8.56365      7.83637     10.76956        -0.182591     -0.041474      0.077108
O	      2.15708      1.92906      2.16791        -0.005204      0.130018     -0.039521
O	      4.36915      4.00092      2.49087         0.122147     -0.002625     -0.076923
O	      4.25141      2.13615      4.35805        -0.028551     -0.205798     -0.033411
O	      6.54067      3.94943      4.11383         0.082859     -0.035286      0.008643
O	      6.34601      1.87055      6.49029         0.013044      0.126248      0.001531
O	      8.66675      3.94406      6.46820        -0.094331     -0.005894      0.270211
O	      1.81107      3.96782      4.41646         0.051662     -0.058347     -0.106531
O	      3.99824      5.91247      4.44646        -0.143671     -0.121302     -0.038261
O	      4.03779      3.96482      6.25988         0.011336     -0.026921     -0.004598
O	      6.17634      5.92992      6.54435        -0.025775     -0.031031     -0.016654
O	      6.26579      3.93103      8.80821        -0.090909     -0.144434     -0.145630
O	      1.90316      5.91797      6.70787        -0.045596     -0.095143     -0.060275
