# total energy = -195.89061666 eV
 
CRYSTAL
PRIMVEC
0.004775 6.140869 6.353120 
6.063873 0.008939 6.349138 
4.050884 4.099305 -0.002058 
PRIMCOORD
36 1
Li	      1.99861      2.03300      0.06467         0.035389      0.028593      0.031284
Li	      1.99275      6.17507      8.36596         0.028759      0.045665     -0.045095
Li	      6.08646      2.05639      4.29645        -0.032362     -0.021205     -0.025979
Li	      0.05463      2.05943      2.07909         0.031083     -0.041389     -0.027907
Li	      2.01557      4.08365      2.16826         0.046126     -0.005481     -0.026660
Li	      6.05561      6.17729      4.24805         0.047428     -0.005671     -0.067626
Li	      0.07701      4.06633      4.21668        -0.013752      0.038767     -0.000917
Li	      1.98806      4.16532      6.25265        -0.040105      0.022860     -0.000144
Li	      6.06315      6.12347      8.40768        -0.012020      0.002668      0.034115
Cr	      4.00890      2.08346      2.08491        -0.099973     -0.193502      0.026803
Cr	      7.98409      8.14084      8.45067        -0.076088     -0.029154      0.402786
Fe	      8.14972     10.19297     10.60225        -0.086979      0.264309     -0.054047
Cu	      4.05102      4.13460      4.18723         0.423717     -0.360801     -0.215240
Cu	      6.06847      4.06843      6.38074         0.084494     -0.063129      0.056987
Cu	      4.03499      6.14094      6.34602        -0.066746      0.030944     -0.004003
Ni	      0.07456      6.15834      6.36509        -0.109990     -0.052012     -0.290516
Ni	      8.06981      6.16100      6.35365        -0.013181     -0.079101     -0.017378
Ni	      8.08395      6.16439     10.57333        -0.202119      0.146577     -0.053786
O	      6.06511      5.97229      6.36063        -0.166073     -0.000117     -0.026889
O	      5.87165      4.11189      8.29426         0.075278     -0.057818      0.082645
O	      2.00313      6.20450      6.24109         0.341953     -0.016214      0.074238
O	      2.20728      2.04489      2.14776         0.091772      0.069608     -0.023098
O	      4.08806      4.00741      1.94689        -0.069901      0.095228      0.602618
O	      4.08204      2.04875      4.11747        -0.113661      0.250856     -0.136976
O	      6.11049      4.07985      4.45992        -0.338776      0.112675      0.050007
O	      6.00937      2.15871      6.39346         0.147636      0.095274      0.003647
O	      8.23175      4.14134      6.24588        -0.362481     -0.057795      0.110953
O	      2.13518      4.19710      4.17885        -0.263557     -0.302476      0.002422
O	      4.02079      6.07056      4.31554         0.301217      0.195676      0.017689
O	      3.89519      4.10035      6.50966         0.041573      0.062507     -0.132037
O	      8.03324      6.28718      8.47510         0.059576      0.098409      0.003101
O	      4.10833      8.12023      6.54715        -0.017531      0.052917      0.018757
O	      4.02592      6.12077      8.55562        -0.027842      0.003574     -0.078669
O	      6.08160      8.21480      8.50881         0.070429      0.010264      0.003731
O	      6.04099      6.11996     10.72455         0.271310     -0.028805     -0.114320
O	      8.13092      8.23099     10.44035         0.015400     -0.312700     -0.180496
