# total energy = -195.71944926 eV
 
CRYSTAL
PRIMVEC
0.007806 6.186488 6.359048 
6.169177 0.006817 6.359942 
4.116686 4.128830 0.000898 
PRIMCOORD
36 1
Li	      8.10705      2.10593      6.39716        -0.007417      0.012033     -0.045352
Li	      6.18444      4.13085      2.27532        -0.029239      0.032936      0.068458
Li	      8.13971      4.13626      4.27961         0.045355     -0.076306      0.100852
Li	      6.15841      2.11070      4.34448         0.087491     -0.027279     -0.030053
Li	      6.19773      2.05613      8.37913        -0.033654      0.076298     -0.003297
Li	      6.19963      6.12317      4.26245        -0.000492      0.009487      0.007531
Li	      4.23732      4.12993      4.26220        -0.016586      0.028328      0.064108
Li	      6.18502      4.09989      6.19901         0.017063      0.013193      0.014789
Li	      6.12830      6.22175      8.39632         0.100936     -0.045120     -0.009473
Cr	      6.16911      4.12758     10.57292        -0.281139      0.046394     -0.180439
Cr	      8.22793      6.21027     10.59233         0.001455      0.227945     -0.242994
Fe	      8.22177      4.10855      8.43395        -0.368921      0.320199      0.120437
Cu	     10.26667      4.14893      6.35630         0.004056      0.143781     -0.187295
Cu	      4.13136      2.04059      2.21850        -0.021607      0.003551      0.280668
Cu	      6.18880      8.24744      6.39188         0.102227     -0.045650     -0.316473
Cu	      4.15092      6.19604      6.37545         0.021580     -0.144863     -0.411460
Ni	      4.13232      2.06696      6.30456        -0.080404     -0.000208      0.152848
Ni	      4.10496      4.14911      8.48603         0.115813     -0.141878      0.263753
O	      6.23646      6.30149      6.33143        -0.277172     -0.154524      0.043631
O	      4.19736      8.28890      6.21930        -0.160961      0.039346      0.160723
O	      4.10705      6.24807      8.30060         0.005213      0.444650      0.077012
O	      6.09065      8.25923      8.37742        -0.308897     -0.016255      0.176096
O	      2.19773      2.18392      2.14550         0.265121     -0.532441      0.014903
O	      4.06664      4.00947      2.01782         0.290958     -0.308497     -0.134626
O	      4.14026      2.07852      4.33011         0.005176     -0.005957     -0.329575
O	      6.17514      4.11712      4.25154        -0.028448      0.029876     -0.028993
O	      6.10335      1.96677      6.38506         0.229137      0.002583      0.032565
O	      8.26402      4.17561      6.44306        -0.018359     -0.156143     -0.097839
O	      2.00500      4.21029      4.19739         0.183129     -0.080966      0.037418
O	      4.04971      6.25409      4.38434         0.026012     -0.030760      0.106157
O	      4.03992      4.12359      6.48736         0.098600      0.237469     -0.150375
O	      6.22725      4.09263      8.58876        -0.043518      0.007893      0.022822
O	      8.24791      6.13201      8.54644         0.021589      0.114983      0.080063
O	      2.01655      6.14239      6.24216         0.059883      0.102275      0.062797
O	      6.22914      6.12922     10.67960        -0.008825     -0.067652      0.194044
O	      8.30292      8.20042     10.50561         0.004845     -0.058723      0.086570
