# total energy = -190.22720766 eV
 
CRYSTAL
PRIMVEC
-0.019952 6.204338 6.093101 
6.192319 -0.018771 6.093049 
4.123891 4.131344 -0.008297 
PRIMCOORD
36 1
Li	      2.02260      0.04811      2.02819        -0.041587      0.007456      0.014300
Li	      4.04469      2.13764      2.03247        -0.002718      0.043186      0.011308
Li	     10.30414      6.27555      8.20659         0.007982     -0.017634      0.008225
Li	      2.00033      4.08833      2.10266         0.018982      0.003926     -0.004160
Li	      4.07277      4.19303      3.92643         0.018582      0.009711     -0.112237
Li	      6.15307      4.15007      6.17506         0.024166      0.001499     -0.008056
Li	      0.04637      4.05645      3.97586         0.019958      0.003734      0.026803
Li	      2.09256      6.16997      3.98685         0.024759     -0.025411      0.012613
Li	      6.26557      6.11926      8.15797        -0.023470     -0.001970      0.034388
Cr	      4.13655      4.09028      0.08427        -0.010275     -0.004226     -0.014782
Cr	      4.08274      6.18161     10.07258         0.008993     -0.010424     -0.071188
Ni	      2.04048      2.04468      0.07878         0.007235      0.007717     -0.019762
Ni	      6.13509      8.26310     10.08677        -0.056148      0.067656     -0.033759
Ni	      2.04251      2.08893      4.02086         0.121804     -0.129330     -0.086545
Ni	      8.24119      6.19466      6.13409         0.032102     -0.045248      0.002327
Ni	      2.06497      4.13431      6.09581        -0.067003      0.043934      0.015412
Ni	      4.13516      6.19600      6.08845        -0.039488      0.027458      0.059531
Ni	      8.27070      8.22297      8.12873        -0.051019      0.085957      0.134910
O	      2.05851      2.07702      2.10687        -0.011498     -0.014611     -0.079984
O	      4.10874      4.15457      1.86167        -0.016988     -0.013341     -0.019311
O	      4.09171      1.96939      4.05509         0.034771     -0.027789     -0.067024
O	      6.34640      4.16640      4.08884         0.051099     -0.054844     -0.014424
O	      6.19654      1.90529      5.98654         0.007538     -0.029090      0.110680
O	      8.32603      4.07540      5.99505        -0.061699      0.002542     -0.038946
O	      2.08411      4.01499      4.12280         0.033246      0.209564     -0.047237
O	      4.27840      6.14997      4.11360        -0.273309     -0.013105     -0.096920
O	      4.08300      4.13880      6.27754         0.093645     -0.006284     -0.171218
O	      6.19666      6.25093      5.93939         0.022299     -0.082870      0.191320
O	      6.00250      4.13876      8.11645         0.195478     -0.005546     -0.016596
O	      8.25003      6.36166      8.11424         0.011346     -0.163763      0.104759
O	      1.99948      6.20995      6.05247        -0.054147     -0.028591      0.015633
O	      4.08974      8.35072      6.09581         0.000484      0.095124     -0.000693
O	      4.15360      6.04335      8.19791        -0.034422      0.137459      0.166079
O	      6.32299      8.25913      8.10257        -0.096418      0.008083     -0.056158
O	      6.00623      6.22494     10.25664        -0.005616     -0.116964     -0.034098
O	      8.15985      8.32568     10.06038         0.111336      0.036037      0.084808
