# total energy = -229.33866443 eV
 
CRYSTAL
PRIMVEC
0.059878 6.165406 6.407663 
6.363134 0.012529 6.454919 
4.237709 4.136493 0.014220 
PRIMCOORD
36 1
Li	      2.26532      1.99393      0.25791         0.022823      0.014566      0.041445
Li	      2.06536      0.08708      2.12413        -0.050392      0.082253      0.035309
Li	      4.27886      8.26369      8.51211        -0.017743     -0.009071      0.002219
Li	      4.40496      6.14249      2.33214        -0.023923      0.014197      0.002753
Li	      6.19594      6.26830      4.25637        -0.024586      0.010950     -0.018098
Li	      4.21646      4.17732      4.21443        -0.024860      0.012827     -0.033148
Li	      4.39870      8.13269      4.47085         0.045996      0.012627      0.058795
Li	      2.09246      4.12457      6.35970         0.008791     -0.004150     -0.053229
Li	      4.27776      6.25280      6.36814         0.034040      0.003810     -0.053917
Mn	      4.38388     10.25019      6.47522         0.042043     -0.181913      0.099340
Mn	      4.34227      6.19335     10.64538         0.006713      0.022241     -0.010316
Mn	      2.13329      4.05048      2.19816         0.013172     -0.119820      0.091839
Mn	      6.34653      4.12749      6.36030        -0.057356      0.040558     -0.047192
Mn	      2.24545      6.15606      4.37113         0.126782     -0.055284      0.022152
Mn	      8.44849      8.24444      8.56060         0.028712      0.029781     -0.011176
Cr	      4.22459      2.08122      6.38257        -0.053926     -0.080755     -0.055522
Co	      6.43536      8.23562     10.72552        -0.029567     -0.026116     -0.049172
Co	      6.37554      6.17832      8.55426        -0.005371     -0.007120     -0.024759
O	      2.12001      2.18998      2.21730        -0.000610      0.115361      0.019534
O	      4.12975      4.17646      1.95146         0.014018     -0.014812     -0.120821
O	      4.45001      2.02427      4.38222         0.105823     -0.062800      0.022670
O	      6.37063      4.00116      4.40170        -0.034699     -0.081454      0.020103
O	      6.28482      2.10400      6.30506        -0.031003     -0.045650     -0.061067
O	      8.62752      4.17444      6.28497         0.044813      0.033241     -0.056598
O	      2.15590      4.22745      4.22814        -0.002833     -0.000092     -0.009489
O	      4.11276      6.19531      4.32145        -0.050638      0.042089      0.019834
O	      4.18217      4.05758      6.62821        -0.032502     -0.045445      0.003398
O	      6.47076      6.06308      6.29895         0.044297     -0.060545      0.066012
O	      6.39602      4.17059      8.34583        -0.143814      0.042328     -0.030939
O	      8.37527      6.08367      8.44824        -0.084661     -0.088377     -0.096033
O	      2.01721      6.21268      6.49723        -0.080440      0.052957      0.034290
O	      4.31313      8.40355      6.42423        -0.006484      0.130438      0.047384
O	      4.40562      6.17859      8.71729         0.051753      0.093652      0.040383
O	      6.44510      8.12939      8.79585         0.134435     -0.023381      0.000134
O	      6.56313      6.26909     10.87668         0.017207      0.099453      0.031432
O	      8.43131      8.23444     10.53869         0.013991      0.053454      0.072449
