# total energy = -91.32434235 eV
 
CRYSTAL
PRIMVEC
0.000213 2.135754 2.133943 
6.406779 6.470590 -4.330356 
-4.279107 2.165715 -2.164257 
PRIMCOORD
16 1
Li	     -2.21869      4.46570     -2.25222         0.205428     -0.126498      0.140946
Li	      2.24486      6.62068     -4.40618        -0.177051     -0.344814      0.362578
Li	     -0.00667      4.44770     -0.03065         0.008557      0.185013     -0.164621
Li	      4.38102      6.76569     -2.33539        -0.452702     -0.180213      0.091998
Mn	     -0.14371      0.07635     -0.07260         5.536674      2.146888     -0.404188
Mn	     -0.01137      6.68794     -2.26505         0.955817     -0.610467      0.320330
Ni	     -1.99786      2.44889     -0.16072        -0.943235     -0.160647     -0.087848
Ni	      2.21644      4.46568     -2.25265        -0.590077      0.528122     -0.197053
O	      4.55875      6.70973     -4.49001        -3.720292     -0.177474      0.313884
O	      0.00559      6.56778     -4.35511         0.109165     -0.556705      0.770228
O	      2.19183      9.05930     -4.62858        -0.918963     -2.408710      1.018924
O	     -2.35994      4.41799      0.00343         0.467358      0.148678     -0.369474
O	     -0.00589      4.57886     -2.36487         0.616015      0.708203     -0.534076
O	      2.06710      6.67560     -2.25309        -0.780750     -0.349639      0.091266
O	     -0.00033      2.10958      0.10309        -0.132872      0.786396     -0.666478
O	      2.35502      4.48086     -0.05734        -0.183072      0.411866     -0.686416
