# total energy = -228.04352409 eV
 
CRYSTAL
PRIMVEC
0.015155 6.580150 6.083382 
6.403901 0.024752 6.073729 
4.254866 4.366063 0.030440 
PRIMCOORD
36 1
Li	      6.45610     10.69560      8.23530        -0.010747     -0.039831     -0.000309
Li	      4.42641      8.73082      8.15301         0.027229     -0.009800      0.021969
Li	      4.17261      6.64310      9.97149        -0.039391      0.021598     -0.010790
Li	      6.47350      8.72171     10.04142         0.079929     -0.054754     -0.066747
Li	      4.32756      6.46618      2.03620        -0.008957     -0.005481      0.023368
Li	      4.37776      4.30512      3.97578        -0.001334     -0.055172      0.014429
Li	      6.39439      8.77086      6.30191         0.011227     -0.004868     -0.001501
Li	      8.28752      8.94093      8.19123        -0.029329      0.018945     -0.063587
Li	      6.25878      6.87426      8.20934        -0.040160      0.007486     -0.015814
Mn	      0.09050      6.59645      6.10247         0.039705      0.048839     -0.074411
Mn	      6.37493      6.51403      4.03832         0.013261      0.000765      0.069397
Mn	      8.50508      6.64401      6.15643        -0.041378      0.019524      0.041423
Mn	      6.37838      4.45872     10.05659         0.073364      0.044687     -0.080165
Mn	      8.60836      6.62430     10.09023        -0.002414     -0.030273     -0.025962
Mn	      4.23705      6.50549      6.17704         0.016840     -0.013512      0.110950
Cr	      2.17150      4.35010      2.03833        -0.074746      0.057056      0.059817
Fe	      6.37215      4.31650      6.10632         0.027252      0.046496      0.029159
Cu	      2.15908      8.76726      6.10627        -0.026580      0.016111      0.101873
O	      6.36591      8.77651      8.18813         0.014713      0.015158     -0.045727
O	      2.12198      2.34452      2.09068        -0.013381     -0.040382      0.019163
O	      4.16370      4.39363      1.92380         0.032336     -0.006417      0.020322
O	      4.01833      2.26559      4.18293        -0.069733     -0.010393     -0.060746
O	      6.39445      4.60178      4.12400        -0.027247      0.036462     -0.117649
O	      6.51739      2.25186      6.02716        -0.018155     -0.110559     -0.024581
O	      8.47502      4.64866      6.11621        -0.006844      0.057823     -0.009924
O	      1.97698      4.18419      4.02837        -0.014854     -0.010859      0.013893
O	      4.25275      6.49870      4.15849         0.035410      0.033110      0.000666
O	      4.39888      4.21472      6.14166        -0.100922     -0.016045     -0.004734
O	      6.23828      6.47454      6.00496        -0.020912     -0.005849     -0.018788
O	      6.54064      4.36774      8.09726         0.052413     -0.025622      0.132613
O	      8.58816      6.41262      8.15848         0.013440     -0.008471      0.005741
O	      2.26057      6.45791      5.96167         0.021295     -0.063069     -0.001913
O	      4.16196      8.91635      5.99374         0.045176      0.015563      0.032536
O	      4.25282      6.59546      8.01076        -0.015238      0.004068     -0.050657
O	      6.64520      6.63020     10.23436         0.055333      0.011018      0.046854
O	      8.70974      8.78174     10.16764         0.003399      0.056644     -0.070167
