# total energy = -228.65810419 eV
 
CRYSTAL
PRIMVEC
0.007794 6.284834 6.217839 
6.397055 -0.011123 6.236420 
4.249712 4.187461 0.007520 
PRIMCOORD
36 1
Li	      6.41714      6.23185     12.37830         0.045293     -0.004062      0.026359
Li	      4.35646      6.25639     10.42747         0.029267      0.020188      0.005175
Li	     10.54712      6.31726      8.42567        -0.026693     -0.047391      0.066652
Li	      8.42556      4.30950      8.36324        -0.052089      0.041112      0.026519
Li	      4.17891      4.22998      4.12673        -0.047121      0.007993     -0.024914
Li	      6.50355      4.25361     10.28147         0.042365      0.059567     -0.060863
Li	      2.08170      6.17973      4.10781         0.023385     -0.056932      0.003906
Li	      2.12174      4.23414      6.06780        -0.004267      0.052395     -0.072275
Li	      6.51651      6.18451      8.40011         0.002807      0.000964     -0.019968
Mn	      6.36753      4.16071      2.12864        -0.101948      0.055679     -0.054928
Mn	      4.29862      8.40057      8.29668         0.001278      0.071008     -0.022796
Mn	      6.45013      8.28667     10.40636        -0.049439     -0.127398      0.086484
Mn	      8.50590      6.23887      6.28957        -0.009003     -0.069495     -0.115633
Mn	      6.38158      4.17483      6.29737        -0.010348     -0.020873     -0.010243
Mn	      4.24030      6.27734      6.15794        -0.019367      0.058519     -0.104763
Cr	      8.53876      8.37962     12.44331         0.015865     -0.000472      0.071661
Fe	      2.03144      2.26906      4.12230         0.045795     -0.127088     -0.055824
Ni	      8.58371      8.30050      8.36862        -0.090849      0.093962      0.038155
O	      2.08020      1.95487      2.08413         0.008931     -0.011366     -0.024970
O	      4.45347      4.01777      2.09046         0.096070     -0.015811      0.028792
O	      4.35135      2.05322      4.18056         0.074551     -0.050115      0.053722
O	      6.40845      4.09527      4.30315         0.006820     -0.021438      0.015950
O	      6.49151      1.99685      6.11061         0.033755     -0.030104     -0.070212
O	      8.39251      4.18518      6.29574        -0.037041     -0.009184      0.018584
O	      2.14112      4.11665      4.09363         0.018924      0.143548     -0.027055
O	      4.33577      6.27635      4.23082        -0.121184      0.005721      0.021534
O	      4.33359      4.05315      6.27173         0.033181     -0.029449     -0.047298
O	      6.25022      6.32956      6.14910         0.003495      0.001156      0.066728
O	      6.32173      4.19667      8.21065         0.161534      0.004939      0.016295
O	      8.54319      6.27780      8.17103        -0.033654     -0.072820      0.079191
O	      2.29765      6.37029      6.16763        -0.007268      0.000366     -0.003872
O	      4.13863      8.44985      6.32840        -0.019918      0.029457     -0.011786
O	      4.13128      6.39276      8.18542         0.024272     -0.071828      0.040429
O	      6.48103      8.47704      8.46645        -0.025440     -0.029120      0.083689
O	      6.39623      6.43779     10.34216         0.019054      0.134043      0.009188
O	      8.37229      8.38861     10.44571        -0.031016      0.014330     -0.031614
