# total energy = -232.87436807 eV
 
CRYSTAL
PRIMVEC
-0.009088 6.494999 6.156521 
6.338034 0.011235 6.137651 
4.238870 4.330691 -0.006362 
PRIMCOORD
36 1
Li	      8.40240      2.25700      6.13206         0.018438      0.018194     -0.000447
Li	      6.42036     10.77868      8.25894        -0.040249     -0.065184      0.004652
Li	      4.25072      8.49845      8.22852        -0.070204     -0.011677     -0.044242
Li	      4.17056      6.55392     10.14186        -0.029431      0.007685     -0.016834
Li	      4.36399      4.27859      4.13014         0.065464      0.037076     -0.042624
Li	      4.23125      2.20079      6.13406        -0.029851     -0.004255      0.053800
Li	      6.30372      4.27342      6.11525         0.006069     -0.018036      0.007001
Li	      4.20372      4.46564      8.17930         0.020472      0.027389      0.008198
Li	      6.19063      6.55470      8.20141        -0.021036     -0.001907      0.013744
Mn	     10.53919      4.37524      6.14937         0.041393      0.027769      0.052875
Mn	      8.47344      4.35290      8.16159         0.020188      0.010946      0.044654
Mn	      2.23740      2.05149      4.10478         0.082645     -0.055511     -0.005485
Mn	     10.48153      8.68797     10.20823        -0.022265      0.004607      0.017245
Mn	      8.39376      6.52200     10.19619        -0.016491     -0.037746      0.028766
Mn	      4.24402      6.45759      6.20206        -0.008731     -0.042934     -0.014893
Cr	      6.37005      2.18901      8.15268         0.036512     -0.023383      0.005673
Fe	      6.19304      2.29416      4.08208         0.109830     -0.122584     -0.030324
Fe	      6.41520      8.61014      6.32620        -0.086701      0.057588     -0.165004
O	      2.05852      2.28529      2.15162         0.011242      0.061862     -0.052400
O	      4.29151      4.50728      1.94048         0.055531      0.010094     -0.011793
O	      4.19492      2.21248      4.06938        -0.142453     -0.019473      0.009362
O	      6.40112      4.19154      4.10739         0.030861      0.258209      0.007133
O	      6.34219      2.23335      6.13453         0.004932     -0.019358      0.087381
O	      8.60539      4.29928      6.28541        -0.044200      0.014537     -0.014895
O	      1.95215      4.50278      4.01183        -0.022266      0.011895      0.051614
O	      4.42035      6.44514      4.11182        -0.036648      0.015239     -0.003213
O	      4.09147      4.51305      6.14147         0.155802     -0.008198     -0.006046
O	      6.44321      6.62449      6.03073        -0.015534     -0.075216      0.032160
O	      6.31509      4.22959      8.29147        -0.093950     -0.012592     -0.049479
O	      8.59390      6.41250      8.27127         0.001482     -0.040944     -0.015887
O	      1.95210      6.36315      6.02864         0.000723      0.015065     -0.010273
O	      4.30252      8.51010      6.03461        -0.019936      0.024151      0.011279
O	      4.20211      6.50982      8.05318        -0.010276     -0.010750      0.020072
O	      6.31616      8.62464      8.23093        -0.004889     -0.032965      0.092657
O	      6.22413      6.60832     10.34229         0.050445     -0.018609     -0.039658
O	      8.52348      8.45850     10.25494         0.003083      0.019015     -0.024769
