# total energy = -233.60470098 eV
 
CRYSTAL
PRIMVEC
-0.021161 6.296754 6.180758 
6.439640 -0.021301 6.180639 
4.272529 4.177365 0.006143 
PRIMCOORD
36 1
Li	      8.51590     10.44800     10.27441         0.050684     -0.052618      0.003076
Li	     10.63120      6.38625      8.33105        -0.047447      0.007096      0.001972
Li	      8.40987      4.24238      8.30371         0.035403      0.003663      0.015347
Li	      2.11078      2.19809      4.08663         0.002956      0.049181     -0.021021
Li	      4.15926      4.24280      4.13009        -0.038406      0.018794     -0.038041
Li	      0.10921      4.15029      4.01486         0.003273      0.003555      0.004820
Li	      2.16868      4.13472      6.06741         0.004978     -0.032243      0.052270
Li	      4.41647      4.15887      8.21598        -0.013097      0.049192      0.023702
Li	      6.52004      6.14493      8.23567         0.036051      0.031159     -0.015889
Mn	      4.25917     10.38251      6.19955         0.019215      0.071741      0.056505
Mn	      2.13556      8.37176      6.21014         0.022501      0.009149      0.044070
Mn	      4.28359      2.06108      2.14567        -0.035371      0.012136     -0.054847
Mn	      4.24378      2.17980      6.21734        -0.014617     -0.075861     -0.024999
Mn	      6.41430      4.22045      6.20554         0.014335      0.024554     -0.052120
Mn	      8.57815      6.18760     10.18541         0.007178      0.055759      0.035122
Mn	      4.30658      6.26052      6.14328        -0.022260      0.049047      0.002960
Cr	      6.42433      2.08803      4.12175        -0.017281     -0.100356     -0.022646
Co	      6.40498      4.16285      2.12510        -0.013694      0.032697     -0.034242
O	      2.25784      1.95849      2.03191         0.002778     -0.033011     -0.079999
O	      4.42402      4.03857      1.99935         0.075255      0.002155      0.030634
O	      4.40280      2.07229      4.22785        -0.021750     -0.034215      0.150871
O	      6.47479      4.07924      4.12762         0.023029      0.006975     -0.093903
O	      6.33116      2.17743      6.16066         0.047980      0.042508      0.005902
O	      8.74566      4.00503      6.18762        -0.028913     -0.068249      0.038557
O	      2.11599      4.34256      4.07634        -0.001573     -0.004439     -0.053826
O	      4.10595      6.29398      4.19844        -0.024927     -0.010956     -0.002992
O	      4.25350      4.31755      6.18778         0.013501      0.137626      0.002740
O	      6.52197      6.18468      6.13864        -0.031120     -0.036847      0.028243
O	      6.43922      4.18496      8.07710        -0.010568      0.021021     -0.036168
O	      8.54217      6.30284      8.15231        -0.008612      0.033354     -0.104088
O	      1.98071      6.38103      6.32617         0.006240      0.055027      0.159001
O	      4.29326      8.25084      6.16487        -0.020860     -0.190679     -0.069608
O	      4.10567      6.38607      8.17728        -0.034996     -0.091846      0.040515
O	      6.25707      8.49693      8.32911         0.009097     -0.014109      0.078161
O	      6.52996      6.33473     10.41562        -0.006436      0.026555     -0.084515
O	      8.42832      8.23393     10.42038         0.017474      0.002486      0.014434
