# total energy = -234.72126779 eV
 
CRYSTAL
PRIMVEC
0.007511 6.361186 6.150443 
6.406981 -0.001988 6.160151 
4.276245 4.251988 -0.006573 
PRIMCOORD
36 1
Li	      4.28983      4.26065      0.06910         0.007338     -0.018477      0.055556
Li	      2.03090      0.05832      1.96390        -0.037247     -0.020075     -0.015712
Li	      6.42686      2.07332      8.14708         0.015363     -0.041663     -0.047160
Li	      8.54925      4.25428      8.17436        -0.056116      0.024268      0.007551
Li	      8.55377      6.35313      6.20338        -0.012798     -0.024275      0.005790
Li	      6.42481      4.24033      6.17314         0.026251     -0.011753      0.024178
Li	      0.04578      4.21670      4.10419         0.021831     -0.016056     -0.039516
Li	      2.14370      4.26148      6.12726        -0.040744      0.036669      0.040534
Li	      4.24599      6.37971      6.11835        -0.018857      0.017767      0.031789
Mn	      4.24444      2.16681      2.01737        -0.003033      0.024710     -0.168344
Mn	      8.57028      4.22782      4.16202         0.038682     -0.015820      0.068474
Mn	      6.42639      2.12834      4.17287         0.021244      0.026695      0.002101
Mn	      6.31011      6.42953      4.17253        -0.050809      0.036197     -0.049231
Mn	      4.26815      4.25256      4.14034        -0.051143      0.013015     -0.035301
Mn	      4.31736      4.22998      8.06408        -0.030834     -0.004263      0.002325
Mn	      6.44642      6.32601      8.10695         0.045193     -0.033465     -0.007751
Cr	      2.13681      2.12323      0.03842         0.107678     -0.020036      0.048795
Fe	      2.18786      6.28491      4.18241        -0.064176      0.089095     -0.178901
O	      2.22156      2.11357      2.04716        -0.065391     -0.030075     -0.014032
O	      4.31001      4.11742      2.17135        -0.036549      0.063527     -0.019333
O	      4.21994      2.13202      4.01607         0.004677      0.094831      0.097822
O	      6.49651      4.12747      4.07399         0.084443      0.015449      0.023721
O	      6.52016      2.11083      6.07985        -0.015574      0.017705      0.011771
O	      8.57136      4.14568      6.03361         0.003018      0.046588     -0.027244
O	      2.12550      4.33550      4.12260        -0.072663     -0.152545     -0.025773
O	      4.20716      6.30538      4.02904         0.132181     -0.106759      0.017731
O	      4.27579      4.23817      6.04304         0.019846      0.009338     -0.051818
O	      6.40262      6.39769      6.19345        -0.017581     -0.020636      0.047023
O	      6.33857      4.44493      8.17975         0.087547      0.020731      0.025805
O	      8.38218      6.39713      8.24494        -0.007900     -0.032700     -0.012117
O	      2.13924      6.46760      6.09467         0.019500     -0.011351      0.152567
O	      4.16996      8.50231      6.31122         0.067779     -0.028923     -0.017781
O	      4.43390      6.42052      8.31019        -0.053231      0.027608     -0.006008
O	      6.40599      8.36218      8.27488        -0.013743      0.050559      0.028274
O	      6.41555      6.48114     10.21616        -0.089138     -0.003472     -0.024690
O	      8.61091      8.42711     10.28445         0.034955     -0.022408      0.048905
