# total energy = -230.39111930 eV
 
CRYSTAL
PRIMVEC
-0.003988 6.178147 6.277967 
6.402972 -0.007400 6.280717 
4.270595 4.122171 -0.006534 
PRIMCOORD
36 1
Li	      4.30004     10.22015      6.37531         0.032524     -0.042922     -0.066600
Li	      8.45507      2.12467      6.37414        -0.096714      0.045302     -0.026653
Li	      4.17696      2.08760      2.05244         0.028656     -0.069714     -0.064088
Li	      0.01783      2.03727      2.07305        -0.033936      0.007958     -0.055391
Li	      2.22370      4.08672      2.04853         0.033098      0.047518     -0.073780
Li	      2.12464      2.10335      4.07115         0.012624      0.020102     -0.031158
Li	      8.55024      6.16559      6.30149        -0.010279     -0.028122      0.034528
Li	      4.29489      6.20016      6.21568         0.019030      0.008865      0.024430
Li	      6.48866      6.12341      8.35132        -0.000341      0.017741      0.022866
Mn	      2.08206      0.08476      2.06378         0.093064     -0.023594     -0.021408
Mn	      8.51823      4.15173      4.24136         0.052690     -0.073787      0.040085
Mn	      6.36091      2.03209      4.24637         0.180162     -0.040566      0.033695
Mn	      6.36364      4.20383      6.28917         0.048439     -0.044444      0.002704
Mn	      0.05797      4.07018      4.18855        -0.075582      0.066193     -0.001411
Mn	      6.42415      8.12364      6.26623        -0.022522     -0.046954      0.009659
Mn	      8.53089      8.21017      8.36086         0.016849      0.025940      0.077001
Cr	      2.14827      6.16205      4.20497        -0.125819      0.123805     -0.002476
Ni	      4.26246      4.14798      4.10483        -0.001186     -0.055002      0.010762
O	      2.16579      1.92248      2.00892        -0.004113     -0.057268      0.066340
O	      4.46254      4.11927      2.06543         0.015588     -0.009430      0.015328
O	      4.43799      1.95719      4.12558        -0.134756      0.112426      0.038608
O	      6.33473      4.21365      4.04178        -0.034967      0.012555     -0.083257
O	      6.33928      2.25796      6.16627         0.015243      0.017989      0.007348
O	      8.35160      4.16874      6.16604        -0.035147     -0.006745      0.088407
O	      2.22524      4.17400      4.09819         0.024179     -0.018889     -0.005494
O	      4.12618      6.26598      4.17438         0.078421     -0.063035     -0.020231
O	      4.26652      4.11702      6.20984        -0.038851      0.036525      0.036499
O	      6.40239      6.16564      6.29499        -0.005137      0.013358      0.011378
O	      6.22025      4.13325      8.47027         0.023917      0.009658     -0.035340
O	      8.50174      6.29879      8.51531         0.020897     -0.007265     -0.028490
O	      2.17037      5.99347      6.34646         0.022074      0.017100      0.068996
O	      4.49008      8.18467      6.14011         0.004328     -0.042127      0.101792
O	      4.12084      6.07580      8.55115        -0.072375      0.041062     -0.121254
O	      6.52303      8.30733      8.48405        -0.081273      0.064376     -0.008786
O	      6.48220      6.05096     10.52780         0.080930      0.014793     -0.007646
O	      8.38836      8.25058     10.60227        -0.029719     -0.073400     -0.036961
