# total energy = -208.55799366 eV
 
CRYSTAL
PRIMVEC
0.034902 6.225053 6.287810 
6.138104 0.062486 6.260347 
4.132198 4.171544 0.002083 
PRIMCOORD
36 1
Li	      2.09094      8.20229      6.22455        -0.025888      0.074772     -0.094461
Li	      6.15385      4.20351      2.07746        -0.031310     -0.075346      0.005970
Li	      4.13100      6.31237      2.21014        -0.023528     -0.010588      0.009872
Li	      4.14117      4.33094      4.23444         0.007058     -0.111207      0.017508
Li	      6.07457      4.23013      6.29912         0.038001     -0.053771     -0.075392
Li	      4.11680      8.19127      4.13897        -0.026344      0.063630      0.012373
Li	      2.25116      6.32432      4.25948        -0.046737      0.006468      0.037460
Li	      4.10597      6.20923      6.11761        -0.017440     -0.096217     -0.033971
Li	      4.18874      4.19664      8.38046        -0.011296      0.016659      0.082473
Mn	      8.15074      4.24565      8.37271         0.143987     -0.076361      0.060129
V	      4.11521      8.26548      8.34278         0.110288      0.075661      0.887964
Co	      0.06032      6.21655      6.26559        -0.432029      0.516294     -0.197542
Co	      4.11490      0.06371      4.18718        -0.021794     -0.167002      0.391708
Co	      6.26775      2.23783      4.24540        -0.775607     -0.768416     -0.401440
Co	      6.14023      6.24517      4.19171        -0.015097      0.081392     -0.007724
Co	      4.08723      2.13289      6.22733         0.344443     -0.011519     -0.305586
Co	      2.15378      4.17406      6.18072        -0.720830      0.017375      0.149191
Cu	      6.19123      6.24802      8.38345         0.075148      0.060908      0.045242
O	      2.10983      2.17085      2.17260         0.089894     -0.045109     -0.036095
O	      4.00357      4.02784      2.00887         0.087929     -0.149476     -0.338225
O	      4.04050      2.04853      4.18598        -0.033633     -0.104329      0.069547
O	      6.32317      4.25801      4.14795        -0.067339      0.361673      0.001008
O	      6.01825      2.18515      6.14521         0.323170     -1.030198      0.366318
O	      8.34232      4.35542      6.12967         0.203873     -0.055614     -0.024999
O	      2.04378      4.00459      4.25347         0.034345     -0.067325     -0.241875
O	      4.23597      6.21713      4.17844         0.109977      0.068070     -0.044436
O	      4.00180      4.06349      6.34090        -0.309167     -0.101734     -0.087380
O	      6.29098      6.27508      6.09616         0.019738      0.917058     -0.110516
O	      6.26102      4.29879      8.32971         0.022112     -0.128650     -0.061902
O	      8.18929      6.19593      8.15689         0.016501      0.077967     -0.062502
O	      1.96272      6.16812      6.27284         0.096659     -0.831336      0.192196
O	      4.20071      8.20792      6.48568         0.507718      0.909227     -0.634092
O	      4.18490      6.34952      8.52204        -0.115381      0.263733     -0.018090
O	      6.08276      8.28186      8.52647         0.164172      0.190678     -0.055181
O	      6.11105      6.36691     10.61371        -0.187458      0.158599      0.488001
O	      8.21314      8.54757     10.47687         0.465866      0.024038      0.014445
