# total energy = -208.26870303 eV
 
CRYSTAL
PRIMVEC
-0.014745 6.268626 6.021467 
6.216741 -0.024323 6.031399 
4.145929 4.187104 -0.018520 
PRIMCOORD
36 1
Li	      6.21119      0.01361      5.99711        -0.023849      0.070805      0.045667
Li	      8.23992      2.12390      6.01590         0.005228      0.013794      0.023435
Li	      2.03257      0.02458      1.98424         0.022563     -0.033040      0.059778
Li	      8.38084      4.19500      4.12089        -0.067825      0.052621      0.036887
Li	      6.21035      2.03206      7.92047         0.044231      0.001683     -0.055455
Li	      4.23632      2.00075      6.00518        -0.021721     -0.021019     -0.014644
Li	      6.32301      4.02797      5.98753         0.028277     -0.067010     -0.111151
Li	     10.32552      8.47143     10.12609         0.078094     -0.014316      0.043681
Li	      4.07840      6.33046      6.02417         0.072284      0.015102     -0.061481
Mn	      8.25506      4.13844      7.95254         0.134787     -0.117779     -0.275441
V	      4.24777      4.29278      8.02647        -0.230079      0.037885     -0.467068
Co	      4.12314      8.32876      8.03704        -0.149360     -0.036988     -0.025805
Co	      6.22619      2.09850      4.08755        -0.095000     -0.000014     -0.083915
Co	      6.12510      6.12770      4.04462         0.109501      0.444689     -0.406594
Co	      4.07247      4.09756      4.02285         0.200274      0.077443     -0.033346
Co	      2.12157      6.30453      4.02723         0.134243     -0.128796      0.153017
Co	      6.13400      8.39645      5.98341        -0.241840     -0.187317      0.172894
Ni	      6.24559      6.30084      7.98810        -0.013517      0.149521     -0.137396
O	      2.20280      2.01015      2.09458         0.064894      0.061140      0.146252
O	      4.06835      3.97908      2.11452        -0.037857     -0.066351      0.075833
O	      4.05616      2.15467      3.94495         1.061602     -0.120912      0.047970
O	      5.96816      4.13168      4.05546        -0.069573     -0.265866      0.033854
O	      6.24458      2.06374      5.90314         0.060837     -0.040604      0.041057
O	      8.29792      4.17668      6.10714         0.020134     -0.058530      0.215893
O	      2.10291      4.08060      3.90011        -0.020050     -0.220093     -0.125850
O	      4.07662      6.01404      3.96328        -0.523216      0.011948      0.031074
O	      3.96598      4.16295      6.10327        -0.102909     -0.001257      0.060699
O	      6.17631      6.44841      5.91061         0.015645      0.204850      0.159762
O	      6.17105      4.23433      7.98560        -0.111376      0.000021      0.095368
O	      8.31735      6.39809      8.11137         0.043377     -0.008050      0.004466
O	      2.05279      6.10145      5.90102         0.117325     -0.121970     -0.256407
O	      4.25705      8.34699      6.11455         0.067506      0.055738      0.063664
O	      4.20025      6.27479      8.05652        -0.003256     -0.039815     -0.022371
O	      6.16194      8.37910      8.14417         0.109130     -0.021516      0.143113
O	      6.40950      6.40006     10.01852        -0.041698      0.402828      0.059116
O	      8.33391      8.42375      9.86718        -0.636807     -0.028826      0.363443
