# total energy = -90.83466158 eV
 
CRYSTAL
PRIMVEC
0.000214 2.146071 2.144252 
6.437729 6.501848 -4.351275 
-4.299779 2.176177 -2.174712 
PRIMCOORD
16 1
Li	     -2.24018      4.50895     -2.27403         0.221790     -0.124183      0.131012
Li	      2.26661      6.68480     -4.44885        -0.200434     -0.396671      0.403438
Li	     -0.00674      4.49077     -0.03095         0.032758      0.210709     -0.181714
Li	      4.42345      6.83122     -2.35801        -0.523662     -0.222746      0.124672
Mn	     -0.16587      0.08760     -0.08381         6.638565      2.389512     -0.415637
Mn	     -0.01148      6.75271     -2.28698         1.051439     -0.659841      0.382024
Ni	     -1.98611      2.50402     -0.18329        -1.036702     -0.153616     -0.104400
Ni	      2.23791      4.50893     -2.27446        -0.632415      0.574967     -0.246702
O	      4.60289      6.77471     -4.53350        -4.684357     -0.114103      0.281897
O	      0.00564      6.63138     -4.39729         0.104551     -0.618106      0.836136
O	      2.21305      9.14704     -4.67342        -1.015515     -2.816989      1.160539
O	     -2.38280      4.46078      0.00346         0.608008      0.130018     -0.367431
O	     -0.00594      4.62320     -2.38777         0.682480      0.764907     -0.592352
O	      2.08712      6.74025     -2.27491        -0.838328     -0.372754      0.113328
O	     -0.00033      2.13002      0.10409        -0.189147      0.936663     -0.766572
O	      2.37783      4.52425     -0.05790        -0.219030      0.472235     -0.758237
