# total energy = -210.81794178 eV
 
CRYSTAL
PRIMVEC
0.017790 6.023110 6.278711 
6.171631 -0.030453 6.325941 
4.085436 4.017908 0.009904 
PRIMCOORD
36 1
Li	      4.18267      3.98866      0.18513        -0.043729     -0.023469      0.073089
Li	      2.06599      6.11231      8.26491         0.017791     -0.010980      0.032913
Li	      4.03089      8.00363      8.22600         0.006897     -0.004847     -0.033433
Li	      4.10986      6.07050     10.35834         0.010973      0.014376     -0.081708
Li	      4.15636      5.93710      2.26694        -0.013666     -0.001224      0.023797
Li	      1.99864      2.01528      4.06849         0.052021     -0.047543     -0.058966
Li	      2.18992      5.95038      4.39703        -0.031254     -0.042222      0.026329
Li	      2.00236      4.13348      6.25691         0.006864      0.008055      0.039335
Li	      3.98631      6.05603      6.29463        -0.003365      0.010839      0.076562
Mn	      6.16602      4.00617      6.31045        -0.098835      0.069250      0.018642
V	      6.24239      7.96688     10.32905        -0.091480     -0.031657     -0.117626
Co	      2.06670      1.98137      0.07310         0.167551     -0.118501      0.111133
Co	      2.08362      4.00230      2.14284        -0.027096     -0.074051      0.080356
Co	      4.09630      4.00477      4.16646        -0.151078      0.176662     -0.158267
Co	      8.22576      5.99184      6.32904        -0.009133      0.074401     -0.033703
Co	      4.14698      7.92682      4.30981         0.128986      0.037899      0.027046
Co	      8.21952      8.01091      8.47443         0.098895      0.123009     -0.103186
Co	      6.16059      5.99903      8.38593        -0.086740     -0.045767     -0.003295
O	      2.04473      2.11359      1.96497        -0.102065      0.106692     -0.013643
O	      3.95917      3.99274      2.25961        -0.007242     -0.005637     -0.003914
O	      4.26268      2.03097      4.35891         0.022710     -0.092720      0.047725
O	      6.07020      3.85691      4.11225         0.031326     -0.012313      0.009629
O	      6.12271      2.04410      6.16706        -0.055921     -0.033439      0.001176
O	      8.12660      4.02412      6.49772         0.032897      0.062632     -0.008607
O	      2.17266      3.98595      4.05894        -0.093041      0.040782      0.023005
O	      4.15035      5.93931      4.21534        -0.022021     -0.173451      0.064314
O	      4.20189      3.89447      6.19432         0.006685     -0.108520     -0.033210
O	      6.29427      5.93542      6.45523         0.027764      0.020214     -0.040444
O	      6.18908      4.08784      8.51761         0.168663      0.026856      0.050896
O	      8.11963      6.03106      8.26354         0.067208     -0.152096     -0.018467
O	      2.02539      6.13893      6.34434        -0.050034      0.085942     -0.040928
O	      3.96183      8.08085      6.24074         0.032642     -0.016973     -0.123958
O	      4.26054      5.88931      8.39559         0.052787      0.092329      0.017661
O	      6.18815      7.94455      8.45188        -0.060638     -0.013345      0.168246
O	      6.15861      6.11898     10.35046        -0.004951      0.046565     -0.048416
O	      8.05370      8.04707     10.67984         0.019633      0.012251      0.029916
