# total energy = -197.24659162 eV
 
CRYSTAL
PRIMVEC
0.030659 6.219175 6.103357 
6.287241 0.013154 6.120799 
4.194980 4.161178 0.005261 
PRIMCOORD
36 1
Li	      4.22296      4.16797      0.05469        -0.034383      0.077237     -0.027645
Li	      2.12271      6.15038      8.00985        -0.014256      0.023066     -0.000102
Li	      6.26633      2.09886      8.04662         0.106717     -0.055993     -0.033551
Li	      4.12217      4.08236      4.10837         0.002824      0.104390      0.094938
Li	      6.24958      4.10269      6.27390        -0.002044     -0.027403     -0.033923
Li	      2.17633      4.20929      6.20611         0.036142     -0.026279     -0.006592
Li	      4.12840      6.23230      6.25816         0.052051     -0.047950     -0.083610
Li	      4.24067      4.18968      8.07198        -0.055349      0.078083     -0.022214
Li	      6.28189      6.27930      8.12638         0.025869     -0.001824     -0.095164
Mn	      2.13201      6.20666      4.07490         0.126919      0.004808      0.133529
V	      6.19365      6.06935      4.17538        -0.102764     -0.012985      0.059185
Fe	      6.33005      4.23607     10.20992        -0.099612     -0.195649      0.200400
Co	      4.28704      2.12409      6.14725        -0.075990     -0.021615     -0.041863
Cu	      4.27822      6.24495     10.14841         0.019416     -0.048312      0.245102
Ni	      8.35133      2.08413      6.14365        -0.085564      0.151707      0.072452
Ni	      4.23916      8.31177      8.10496         0.772248     -0.293100     -0.437232
Ni	      6.26442      2.11952      4.04084         0.022138      0.078197      0.198309
Ni	      2.13486      4.13993      2.02020        -0.037376      0.100828     -0.086346
O	      4.23907      6.38322      8.21401        -0.254555     -0.459242     -0.043188
O	      2.22616      2.13393      2.13153        -0.707899      0.050982      0.215275
O	      4.07094      4.00335      2.03518        -0.289197      0.655617      0.096975
O	      4.07254      2.09479      4.08814        -0.036845     -0.259735      0.613730
O	      6.21192      4.31392      4.03404         0.162302      0.048000     -0.057049
O	      6.25070      2.10943      6.04080        -0.354453      0.033800      0.006850
O	      8.37607      4.30901      6.05284         0.022406     -0.209602     -0.049666
O	      2.05340      4.09729      4.08920         0.250698      0.154546      0.027769
O	      4.37899      6.27180      4.08217        -0.030678     -0.074576      0.035976
O	      4.22261      3.94091      6.16722         0.032613      0.215505      0.008135
O	      6.41527      6.22578      5.93583         0.154353      0.038043      0.070632
O	      6.45278      4.15376      8.26966         0.136983      0.036953     -0.247455
O	      8.48646      6.13373      8.21951        -0.112761     -0.045066     -0.261117
O	      2.15426      6.26533      5.95570        -0.021489     -0.169935     -0.191778
O	      4.12268      8.30286      6.05315         0.116459     -0.050769      0.005761
O	      6.12325      8.35969      8.18803         0.466470      0.115855     -0.107909
O	      6.42116      6.22644     10.18253        -0.164969      0.170904     -0.108853
O	      8.44434      8.30564     10.15522        -0.026426     -0.138486     -0.149759
