# total energy = -198.02656531 eV
 
CRYSTAL
PRIMVEC
-0.014841 6.080373 6.178318 
6.261885 -0.013588 6.176891 
4.184452 4.062753 -0.019152 
PRIMCOORD
36 1
Li	      2.10668      2.05739      0.08791         0.030498      0.011252     -0.020902
Li	      6.32744     10.10198      8.28838        -0.074704      0.003352      0.010295
Li	      4.18216      1.96511      2.13089         0.005626      0.074008     -0.067506
Li	      6.34176      2.07303      8.19926        -0.020096     -0.127233     -0.056749
Li	      2.11839      2.03207      4.06888         0.018562     -0.020403      0.018440
Li	      8.35633      6.09565      6.19606         0.038044     -0.039216      0.007596
Li	      6.26022      8.06891      6.24320        -0.070941      0.035313      0.023602
Li	      8.18155      8.14313      8.17607        -0.076302      0.004788     -0.049221
Li	      6.22563      6.13804      8.16427        -0.018775      0.027920      0.012480
Mn	      4.20336      6.07771      6.28026        -0.117660      0.177950      0.076871
V	      4.24297      4.05817      0.09422        -0.298998     -0.111583      0.164763
Fe	      8.35008      6.09661     10.16390        -0.079485      0.135435      0.336194
Co	      4.19212      6.07645     10.23535        -0.337800      0.165389     -0.486443
Cu	      8.28140      4.00639      8.23065         0.298468      0.181814     -0.257574
Cu	      6.26653      4.05853      6.19682         0.068031      0.017296      0.153718
Ni	      6.24877      8.11061     10.24438         0.085230     -0.106700      0.148987
Ni	      4.16076      3.99860      4.14086         0.111868     -0.009265     -0.100747
Ni	      6.27305      4.00920     10.22216         0.020201     -0.105444      0.080666
O	      6.35794      4.00587      8.13794        -0.103091      0.073984     -0.052802
O	      6.21158      8.12338      8.40031         0.026383      0.006191     -0.257144
O	      2.06147      2.20010      2.07352        -0.029783     -0.229743      0.056062
O	      4.16146      4.08092      1.88275        -0.048332      0.053152      0.180956
O	      4.29164      1.94455      4.14564        -0.056630      0.666397     -0.101818
O	      6.41038      4.02626      4.23621        -0.505833      0.140109      0.029057
O	      6.30427      1.85332      6.05494        -0.018711      0.105620      0.019239
O	      8.61492      4.02254      5.94518         0.220661     -0.021404      0.902503
O	      2.10594      4.13106      4.12442        -0.099050     -0.155402      0.014588
O	      4.07168      6.07656      4.29272         0.032706     -0.008228     -0.300690
O	      4.06601      4.20009      6.16596         0.001566     -0.101428      0.199708
O	      6.04925      6.06908      6.17614         0.006394     -0.031600      0.062399
O	      8.35170      5.92046      8.25074        -0.054969      0.021729     -0.168111
O	      1.92234      6.08964      6.10487         0.242418      0.012682     -0.006678
O	      4.19447      8.16165      6.12555        -0.046540     -0.087110      0.039889
O	      4.08745      6.09585      8.16718         0.190375     -0.046031     -0.359945
O	      6.20129      6.03174     10.35964         0.651883      0.001859     -0.094958
O	      8.33806      8.14882     10.20911         0.008785     -0.715448     -0.156723
