# total energy = -199.71666018 eV
 
CRYSTAL
PRIMVEC
-0.003068 5.945605 6.032994 
6.656436 -0.022373 6.049163 
4.461954 3.994996 -0.035011 
PRIMCOORD
36 1
Li	      4.43873      9.88810      6.01848        -0.025035      0.158793     -0.113303
Li	      2.51370      7.97611      6.09831        -0.111282      0.034315     -0.057992
Li	      4.53988      7.87660      7.96332         0.013206     -0.025636      0.072696
Li	      6.48733      2.01900      3.98467        -0.018005     -0.091497      0.091644
Li	      0.06463      1.96600      1.94511         0.023804      0.094253     -0.143076
Li	      2.27588      1.94990      3.95704         0.023273      0.049998      0.052530
Li	      0.07697      3.92741      4.04794        -0.069331     -0.023553     -0.013432
Li	      6.46546      7.89501      6.08460        -0.078994     -0.020772     -0.036024
Li	      8.62350      8.00248      7.98487        -0.072574     -0.032018      0.026381
Mn	      2.31830      3.92527      2.00156        -0.173926     -0.154995     -0.162758
V	      8.84350      6.12191     10.15039         0.122160      0.165575      0.153986
Fe	      4.54906      2.01992      6.04532        -0.033982     -0.247340      0.243663
Co	      4.40018      3.95727      3.99668         0.361852     -0.436963     -0.122430
Cu	      4.41306      5.92444     10.00175        -0.051984     -0.181738      0.045104
Cu	      4.47072      5.96817      6.08693        -0.159643     -0.164344      0.179433
Cu	      6.77027      5.99400      8.02505        -0.069235     -0.055613      0.108162
Ni	      6.58136      4.00177      1.98229         0.025301     -0.004785     -0.359127
Ni	      6.71739      3.95074      5.97993         0.160201     -0.072916      0.069022
O	      4.49091      7.80594      5.97776        -0.051811      0.050801      0.084360
O	      4.15356      5.91523      8.04235         0.112291      0.145795     -0.296191
O	      6.62307      7.85378      8.05567        -0.004320      0.035413     -0.001860
O	      2.09155      2.07585      1.98409         0.084498      0.180864      0.093763
O	      4.31452      3.91287      2.08763         0.041044     -0.002575      0.112870
O	      4.32213      1.94035      4.09576         0.005642      0.055786     -0.387348
O	      6.30939      4.01426      3.96036        -0.340031     -0.039584     -0.011861
O	      6.42573      1.97969      6.01346         0.380435     -0.097925     -0.024657
O	      8.90846      3.98668      6.01242         0.060289     -0.164766      0.366980
O	      2.40481      4.04066      3.91898         0.002661     -0.147768      0.003678
O	      4.22721      5.86866      4.16590        -0.155962      0.732584      0.106488
O	      4.55357      4.03022      5.98193        -0.016750      0.345973     -0.080554
O	      6.95977      5.97960      6.17615        -0.149633      0.069092     -0.083129
O	      7.02001      4.10615      8.02487         0.128908     -0.039676      0.156881
O	      9.12414      5.88226      8.16171         0.091601     -0.021415      0.055481
O	      2.04207      5.95655      5.87257        -0.017510     -0.042674     -0.103276
O	      7.00829      5.93096      9.90836        -0.041103     -0.010752      0.024752
O	      8.99972      7.87714     10.00657         0.003944     -0.039938     -0.050857
