# total energy = -198.22973749 eV
 
CRYSTAL
PRIMVEC
-0.013743 6.042916 6.536175 
6.079441 0.016692 6.501792 
4.082692 4.037277 -0.021450 
PRIMCOORD
36 1
Li	      4.08172     10.03825      6.51339        -0.027380      0.006325     -0.058449
Li	      8.03110      2.08804      6.53376        -0.053264      0.027382     -0.036114
Li	      6.07904      2.07011      4.47063        -0.039070     -0.034138     -0.002388
Li	      6.12508      2.00382      8.55078         0.018092     -0.037992     -0.069585
Li	      6.06429      6.08072      4.34117        -0.005617     -0.057776     -0.020928
Li	      4.05879      2.03030      6.49571         0.058425      0.009786     -0.031524
Li	      4.04648      8.02908      4.45091        -0.021207      0.027751      0.053325
Li	      4.11185      6.04541      6.42640         0.018995     -0.010585     -0.106687
Li	      6.03282      6.06986      8.61974         0.048294      0.048190      0.076805
Mn	      2.02004      6.09277      8.62039        -0.231816      0.116697      0.154681
V	      8.21840      7.96375      8.76731        -0.215257     -0.160678      0.282411
Fe	      1.95407      6.02597      4.53719         0.012453      0.130238     -0.155334
Co	      4.11513      0.08184      4.42028         0.009296     -0.031569     -0.189289
Cu	      8.11006      4.03639      8.57708         0.057615      0.023874      0.074500
Cu	      4.07235      4.02468      4.21825        -0.014286     -0.153754      0.113880
Cu	      6.06170      4.09742      6.50876        -0.118637     -0.013497     -0.078847
Cu	      6.08501      7.95263      6.51066         0.055000      0.026703     -0.053335
Ni	      4.09911      8.06467      8.61083         0.045396     -0.048997      0.074718
O	      6.13468      6.01604      6.45618         0.047315      0.244670      0.098180
O	      5.87696      4.07060      8.86876         0.180529      0.073542      0.004455
O	      4.18765      7.97842      6.66441         0.102762     -0.080200     -0.490028
O	      2.09488      1.95132      2.01325        -0.212017      0.044523     -0.018869
O	      4.22870      4.02883      1.93732         0.033710      0.221044     -0.012199
O	      4.08586      2.09677      4.06457         0.000494     -0.265674      0.267008
O	      6.00956      4.11428      4.01480         0.305683     -0.023226      0.031464
O	      6.03099      2.25412      6.46763         0.027383     -0.176585      0.020431
O	      7.94161      4.09448      6.56195         0.255777      0.014098     -0.579691
O	      2.16239      4.04116      4.07452        -0.114672     -0.209588      0.137107
O	      3.91821      5.89354      4.38460         0.250390      0.188710      0.014626
O	      4.11982      4.04208      6.86995        -0.144964      0.076550     -0.023927
O	      8.04519      6.17341      8.82435        -0.003096      0.076628      0.030362
O	      2.08069      5.91983      6.56646        -0.011613     -0.059421      0.110102
O	      3.96429      6.00211      8.84846         0.282961     -0.130572      0.540456
O	      6.23636      8.18550      8.71540         0.095995     -0.116703     -0.142132
O	      6.11979      6.03580     11.02998        -0.708694      0.014675     -0.058804
O	      8.10769      8.06855     10.75075         0.015026      0.239571      0.043617
