# total energy = -199.49025652 eV
 
CRYSTAL
PRIMVEC
0.079497 6.160951 6.420537 
6.179191 0.059017 6.441378 
4.174300 4.176353 -0.015134 
PRIMCOORD
36 1
Li	      4.19733      2.13738      2.28279         0.034057      0.048284     -0.013592
Li	      6.08160      2.14262      4.16294         0.121821      0.082664     -0.222478
Li	      2.13609      4.20876      2.25668         0.084899     -0.105456     -0.010229
Li	      2.18514      2.11146      4.36469        -0.056338     -0.113556     -0.140450
Li	      4.07336      4.10792      4.34330         0.006549      0.138640     -0.175813
Li	      4.05943      2.17237      6.33245         0.071743     -0.044194      0.000829
Li	      2.16825      6.09643      4.17364         0.022672      0.072766     -0.026207
Li	      2.22695      4.03695      6.37517        -0.056602      0.140887      0.141835
Li	      6.32725      6.28092      8.44227         0.000943      0.147862      0.006534
Mn	      4.16602      6.23789      2.17101         0.518649     -0.343947      0.155817
V	      8.27466      2.20361      6.38804        -0.082615     -0.523888      0.742670
Fe	      0.22844      4.08587      4.28926        -0.302503     -0.031811     -0.072181
Co	      6.32290     10.33336      8.55955        -0.126510      0.708868     -0.599126
Cu	      6.18109      0.08404      6.42218         0.115673     -0.038214      0.396313
Cu	      4.10373      0.15523      4.20467        -0.367746      0.012160     -0.076660
Cu	      6.19495      4.24330      6.38919         0.389479     -0.299667     -0.038207
Cu	      4.24543      6.14998      6.42839        -0.475606      0.322934      0.211509
Cu	      8.30822      8.28952      8.50025        -0.387536      0.302521      0.034548
O	      2.19183      6.31452      6.60977         0.145327     -0.070120     -0.460290
O	      4.06996      6.11439      8.61901         0.253350     -0.233330     -0.414390
O	      6.34861      8.48716      8.48360         0.165561     -1.136450      0.055801
O	      6.14287      6.14011     10.88476        -0.294205     -0.030490      0.003519
O	      1.98546      1.94423      2.02004        -0.133062      0.502123     -0.202618
O	      4.29414      4.28693      1.97821        -0.202930      0.121778     -0.039407
O	      4.16172      2.04331      4.28812         0.004911     -0.089016      0.196581
O	      6.31985      4.22172      3.96103         0.510413     -0.061020      0.876643
O	      6.33134      2.21941      6.61046        -0.358411      0.195415     -0.193628
O	      8.23172      4.01780      6.58118        -0.162291      0.500480      0.089192
O	      2.06343      4.15065      4.30394         0.207016     -0.005483      0.084512
O	      4.18994      6.26598      4.05645        -0.036923     -0.006923      0.121400
O	      4.27025      4.23172      6.28947         0.181444     -0.066085     -0.005228
O	      6.18389      6.16917      6.46245         0.014158     -0.198920     -0.149213
O	      6.14388      4.05534      8.73649         0.056500      0.120206     -0.020135
O	      8.45504      6.31026      8.54308        -0.195949     -0.027834     -0.062428
O	      4.05175      8.16170      6.42151         0.352146     -0.069152     -0.009016
O	      8.27762      8.27633     11.04628        -0.018086      0.077967     -0.186404
