# total energy = -201.56509725 eV
 
CRYSTAL
PRIMVEC
-0.019312 6.254268 6.181800 
6.113149 -0.075467 6.238467 
4.078315 4.208894 -0.053114 
PRIMCOORD
36 1
Li	      6.15193     10.29007      8.17603        -0.053605      0.060813     -0.017908
Li	      4.17717      8.27559      8.26799        -0.056495     -0.000261      0.012341
Li	      6.08377      2.14350      4.06020        -0.013174     -0.034630      0.058268
Li	      6.11814      6.29312      4.31784        -0.029075      0.010061      0.026109
Li	      8.01939      6.34140      6.14858        -0.008652      0.004929     -0.045914
Li	      5.99561      4.33691      6.14247         0.005040      0.031561     -0.025943
Li	      2.03583      6.20245      4.14237         0.018295      0.016854      0.028330
Li	      6.15433      8.20866      6.19254        -0.032890     -0.025574     -0.074123
Li	      4.13044      6.15703      6.22859         0.001434     -0.011396     -0.019100
Mn	      0.04341      6.26057      6.12490         0.058576     -0.054566      0.038555
V	      4.09413      6.24255      2.12373         0.165943     -0.119187      0.101807
Fe	      7.97870      4.28134      4.06608         0.272741     -0.134567      0.430300
Co	      8.13028      4.15321      8.27447         0.013839     -0.032969     -0.079515
Co	      6.12215      4.11111     10.35101        -0.032419      0.001695      0.170162
Cu	      8.14461      8.26329     12.32381         0.079196     -0.062064      0.061948
Cu	      4.11727      3.95527      4.29200        -0.124924      0.069923      0.071897
Cu	      4.00517      4.17192      8.20911         0.360417     -0.027313      0.047706
Ni	      6.09737      6.34613      8.15624         0.039101     -0.239753      0.282795
O	      1.91641      6.36460      6.13636         0.033229     -0.107988      0.030358
O	      6.21123      8.30490      8.26844        -0.207830      0.045147     -0.094965
O	      1.81600      2.18419      2.00095         0.158446      0.071203     -0.081836
O	      4.11327      4.34510      1.90350        -0.067771     -0.082052      0.034092
O	      4.07317      1.97027      4.11277        -0.002576      0.190550     -0.085189
O	      6.08435      4.14178      4.14075        -0.255487     -0.010338     -0.021157
O	      6.16679      1.86476      6.30028        -0.220292      0.040344      0.047187
O	      8.28321      4.05018      6.17341        -0.099453      0.054069      0.074787
O	      1.97729      4.18113      3.98267         0.060144      0.044666      0.064298
O	      4.06003      6.38330      3.93034         0.016172      0.084938     -0.037901
O	      4.04647      4.15167      6.22849        -0.071343     -0.035297      0.207717
O	      6.07785      6.23952      6.24749         0.023634     -0.014667     -0.231455
O	      6.00977      3.98317      8.37454         0.003126      0.129742     -0.008252
O	      8.29717      6.18339      8.20960        -0.118750      0.080273     -0.023943
O	      4.04357      8.50960      6.00781         0.120317      0.049592     -0.143134
O	      4.08786      6.20558      8.38741        -0.052023      0.142824     -0.377626
O	      6.06879      6.05061     10.43298         0.056024     -0.042024     -0.253004
O	      8.26393      8.39823     10.27514        -0.038912     -0.094539     -0.167693
