# total energy = -203.04003548 eV
 
CRYSTAL
PRIMVEC
-0.030806 6.306291 6.109251 
6.185147 0.000021 6.077155 
4.139312 4.199440 -0.015860 
PRIMCOORD
36 1
Li	      4.10107      2.06083      2.05549        -0.028684      0.014078      0.021439
Li	      8.13621     10.43231     10.08073         0.009467      0.025413      0.005217
Li	      6.24971      8.41900     10.11013        -0.082177     -0.010110      0.034115
Li	      6.21572      2.19085      8.15631         0.011030     -0.100613      0.026408
Li	      8.08628      4.17339      8.18508         0.046921      0.067714     -0.010671
Li	      6.20716      4.24508      6.18208         0.063831      0.054963     -0.066639
Li	     10.23847      8.29039     10.08401         0.030170     -0.026789      0.058428
Li	      8.32827      6.41499     10.08709         0.018316     -0.025652      0.023751
Li	      4.11595      6.30457      6.09188        -0.009609     -0.017076     -0.021994
Mn	      4.17351      2.12258      6.08500         0.111335      0.092070     -0.149076
V	     10.25455     10.40866     12.06554        -0.104042      0.258630      0.185441
Fe	      4.14315      4.27521      4.01104         0.149826     -0.070698     -0.174565
Co	      2.06643      0.05140      2.02044         0.015992      0.024811      0.282024
Co	      2.07288      2.11424      4.02104         0.035134     -0.027795      0.014373
Cu	      8.16107      2.13870      6.04366        -0.035684     -0.075742     -0.021633
Cu	      6.16666      8.34318      6.07003        -0.115529      0.195293     -0.075143
Cu	      8.26377      8.41166      8.15874        -0.100325      0.094056      0.069656
Cu	      6.12024      6.28654      8.17493        -0.062337     -0.110392      0.182553
O	      3.96705      6.19916      8.07425         0.134065      0.209410     -0.084550
O	      6.22035      8.27234      8.03101        -0.085906      0.549084      0.001632
O	      8.20591      8.39975     10.20568        -0.003115      0.034214      0.025940
O	      2.06326      2.07132      2.02617        -0.026276     -0.870159      0.124415
O	      4.29840      4.15511      1.99898        -0.090081      0.149804     -0.150539
O	      4.06800      2.17194      4.13647        -0.032988     -0.071519     -0.031498
O	      6.17992      4.36461      3.91803         0.132845     -0.003338     -0.223702
O	      6.14250      1.95341      6.10130         0.014840      0.047533      0.033926
O	      8.40534      4.40278      6.13826        -0.179741     -0.052427      0.054052
O	      2.13266      4.08102      4.11369        -0.225789     -0.035989     -0.071968
O	      4.25132      6.22381      4.10324         0.044338      0.227844     -0.025289
O	      4.26172      4.04728      6.02932         0.037466      0.052726      0.020836
O	      6.36432      6.31677      5.92161        -0.127187     -0.032457     -0.140154
O	      6.07557      4.35585      8.15442         0.179758      0.059888     -0.011161
O	      8.21655      6.39478      7.98169        -0.035961     -0.135123      0.084548
O	      1.85566      6.19228      6.20182         0.260319     -0.050851      0.115875
O	      3.90473      8.59944      6.11439         0.004938     -0.435711     -0.020943
O	      6.19650      6.31807     10.35984         0.044838     -0.005090     -0.085102
