# total energy = -91.89962721 eV
 
CRYSTAL
PRIMVEC
0.000381 2.077151 2.076934 
5.923082 6.236692 -4.158041 
-3.981173 2.097738 -2.098206 
PRIMCOORD
16 1
Li	     -1.99357      4.19335     -2.11651        -0.006699      0.002418     -0.003238
Li	      2.00177      6.16290     -4.08312         0.013538      0.012866     -0.014975
Li	      3.91739      8.32672     -4.17605        -0.016889     -0.009350      0.015833
Li	      1.94679      4.15544     -2.07591         0.002583      0.002818     -0.004559
Mn	     -3.90841      4.17931     -0.02590         0.024199     -0.013907      0.009792
Mn	     -0.04996      6.25705     -2.10240        -0.003559     -0.004400      0.008643
Ni	     -0.00209      4.17027     -0.01615        -0.006641     -0.008742      0.009894
Ni	      3.85964      6.25639     -2.09945        -0.016601     -0.064624      0.061366
O	      4.04563      6.17991     -4.09987         0.058307      0.114378     -0.117673
O	     -0.03301      6.17688     -4.09956        -0.002344     -0.100326      0.099195
O	      1.93569      8.47112     -4.31558         0.115713      0.026389     -0.032593
O	     -2.03046      4.14828      0.00069        -0.141867      0.032478     -0.018501
O	     -0.03025      4.23929     -2.16169        -0.005500      0.124778     -0.113950
O	      1.85582      6.27591     -2.12077        -0.172972     -0.011149      0.011084
O	      0.00276      2.01245      0.06394         0.006494     -0.097141      0.092724
O	      2.01685      4.16379     -0.00627         0.152236     -0.006486     -0.003042
