# total energy = -204.49822173 eV
 
CRYSTAL
PRIMVEC
-0.014722 6.292383 6.194359 
6.170997 0.024368 6.155040 
4.133217 4.187996 -0.003551 
PRIMCOORD
36 1
Li	      6.14303      6.28904     12.30655        -0.048867     -0.022999     -0.031600
Li	      4.14056      8.23664      8.15506        -0.043187      0.030097      0.038118
Li	      4.19287      6.22902     10.25066        -0.037554     -0.008169      0.054724
Li	      8.21996      6.27752      6.24211        -0.020956      0.009917     -0.008895
Li	      6.24985      4.20484      6.24536        -0.046835      0.028163      0.026055
Li	     10.20960      8.47696     10.28848        -0.022169      0.029423     -0.049531
Li	      4.12629      6.40129      6.33589         0.029460     -0.022407     -0.007836
Li	      4.14742      4.28945      8.21347         0.029957     -0.032910      0.024875
Li	      6.02801      6.31134      8.18168         0.046065      0.008162     -0.039471
Mn	      6.18155      8.34589     10.30806        -0.117625      0.050239     -0.017123
V	      4.13726      4.19707      4.25403         0.072532      0.013760     -0.059517
Fe	      8.18188      4.27251      8.09962         0.108976     -0.081640      0.152056
Co	      6.17302      2.11297      8.17624         0.022896      0.030824      0.027459
Co	      6.22180      6.26967      4.19506         0.038550     -0.057189     -0.042563
Co	      6.03205      8.38705      6.24335        -0.009321      0.045845      0.107740
Cu	      2.09978      8.38411      6.19365         0.057888      0.019802      0.046463
Ni	      8.19874      6.34961     10.26919         0.049517     -0.054376      0.002802
Ni	      2.07582      6.27232      8.20718        -0.127906      0.039250      0.045190
O	      3.97101      6.28228      8.29296         0.120694     -0.009558     -0.036100
O	      1.97587      2.07064      2.07500        -0.043472      0.123524      0.083184
O	      4.16357      4.31887      2.12924         0.011058      0.038630     -0.012847
O	      4.17627      2.29942      4.09241         0.149202      0.007708      0.015522
O	      6.03755      4.10984      4.10593         0.101948      0.050356      0.064097
O	      6.21704      2.12641      6.16471        -0.022469     -0.067039     -0.096263
O	      8.25914      4.13384      6.22995         0.016829      0.023736     -0.307684
O	      2.24080      4.20695      4.00413        -0.049339     -0.139485      0.123382
O	      4.15638      6.11802      3.95367         0.036934     -0.031356     -0.013203
O	      4.06115      4.27102      5.98986         0.028429      0.008154      0.091625
O	      6.17803      6.43190      6.12707        -0.003038     -0.031979      0.077224
O	      6.25367      4.06400      8.26226        -0.221063     -0.054064      0.046758
O	      8.38680      6.25122      8.23381         0.047718      0.092225     -0.079760
O	      2.06019      6.21401      6.17828        -0.007678     -0.015771     -0.035784
O	      4.10513      8.38545      6.12225         0.024308      0.019215      0.007780
O	      6.16880      8.45959      8.37123        -0.000643     -0.131100      0.002115
O	      6.17242      6.48659     10.23953        -0.122487      0.015061     -0.003249
O	      8.09873      8.37998     10.38226        -0.048353      0.075950     -0.195744
