# total energy = -204.68546458 eV
 
CRYSTAL
PRIMVEC
-0.012851 6.211509 6.149525 
6.242400 -0.038330 6.176632 
4.166460 4.163001 -0.031239 
PRIMCOORD
36 1
Li	      2.05282      8.09569      6.19878         0.022965     -0.006439      0.178504
Li	      1.98149      0.00692      1.97942         0.006291      0.151626      0.019880
Li	      6.27262      2.03147      4.20375         0.007116      0.035869     -0.005759
Li	      4.21023      6.15348      2.03438         0.123939      0.012744      0.002219
Li	      2.15725      4.14063      2.08850         0.051218     -0.255792      0.000457
Li	      2.00962      2.11034      4.03268         0.025635     -0.020890     -0.250888
Li	      4.00735      4.33422      4.03297        -0.057890     -0.036974     -0.082532
Li	      2.14058      6.12099      4.12209        -0.003828     -0.023829      0.011038
Li	      4.03090      6.15719      5.96564        -0.070249     -0.061105     -0.016300
Mn	      6.22968      4.20714      6.23661         0.035515     -0.033542     -0.002198
V	      8.27699      4.15211      4.07513        -0.100949      0.037101      0.094330
Fe	      4.25376      8.14774      4.07169        -0.184698      0.082635     -0.099421
Co	      4.08913      2.15621      2.00440         0.108180     -0.398529     -0.353456
Co	      4.17823      2.13404      6.14618         0.025024      0.022385     -0.036535
Co	      6.18187      8.25108      6.09449        -0.010394     -0.015805     -0.070956
Cu	      4.18635      4.17097      0.01900        -0.027136      0.025289      0.018312
Cu	      8.27781      8.26968      8.20223         0.048812      0.121599      0.073909
Cu	      6.28503      6.25673      8.22433        -0.108985      0.017394      0.084275
O	      1.90795      5.98738      6.15509         0.105618     -0.073664     -0.055110
O	      6.03497      8.18710      8.05900        -0.027977      0.293216     -0.016622
O	      2.26788      2.01834      1.99563         0.183503      0.357290      0.021573
O	      4.17070      4.10871      1.89949        -0.148432     -0.783133      0.297847
O	      4.25365      1.86730      4.13167         0.049911      0.253145     -0.222949
O	      6.47888      4.11261      4.24324        -0.083715     -0.009774     -0.014874
O	      6.11294      2.31714      6.23138        -0.094814     -0.054803      0.019254
O	      8.48107      4.35278      6.07748         0.024898      0.082210     -0.020671
O	      2.01883      4.13322      4.18582         0.157338      0.035777      0.147379
O	      4.12182      6.27936      3.99234        -0.096011     -0.237734      0.011993
O	      3.99655      4.07276      6.16259        -0.154995      0.003848      0.022607
O	      6.41509      6.19761      6.02142         0.029158      0.114599      0.065092
O	      6.33610      4.29094      8.20978         0.093310      0.119028      0.032588
O	      8.25055      6.35870      8.02511         0.006992     -0.107240     -0.072919
O	      4.26759      8.08063      6.10805         0.001140      0.006974      0.660849
O	      4.21401      6.13586      8.42119        -0.019416      0.346897     -0.225646
O	      6.13449      6.13379     10.48145         0.111543      0.068142     -0.215084
O	      8.39158      8.45685     10.29975        -0.028615     -0.068514     -0.000188
