# total energy = -203.41821408 eV
 
CRYSTAL
PRIMVEC
-0.037217 6.177760 6.239915 
6.171274 -0.013817 6.214848 
4.136668 4.125639 -0.032048 
PRIMCOORD
36 1
Li	      2.08203      4.13736      2.09859        -0.008022     -0.012737     -0.060005
Li	      4.06922      4.16906      4.22988         0.068530     -0.003138      0.018317
Li	      4.06987      2.19921      6.23672         0.009788      0.015301     -0.058462
Li	      6.10614      4.11195      6.17943         0.023996     -0.029510     -0.023117
Li	      0.07237      4.06780      4.20334        -0.075261     -0.073993      0.009454
Li	      2.08857      6.07935      4.18029         0.086424      0.027631      0.020975
Li	      2.08798      4.12347      6.19197        -0.012539      0.030931      0.107468
Li	      4.04184      6.10137      6.20294        -0.035070      0.050389      0.030513
Li	      4.09559      4.08664      8.16331         0.028490      0.002681     -0.044176
Mn	     10.22068      6.19583      8.31151        -0.132513      0.055647      0.041675
V	      6.19818      8.26213     10.28603        -0.435946      0.084289      0.121486
Fe	      6.22527      6.00966      8.12794        -0.120188      0.037282      0.194875
Co	      2.04344      8.24662      6.21780        -0.007694     -0.063166     -0.067939
Co	      4.10268      2.10089      2.04710         0.060488      0.004487      0.086098
Co	      6.13923      6.26516      4.22710         0.011443      0.146485      0.249977
Ni	      4.09469     10.28904      6.20045         0.019145     -0.005464     -0.078072
Ni	      2.06432      6.18780      8.25737         0.128035     -0.023902      0.063849
Ni	      4.09560      6.16449     10.38497         0.007213      0.081431      0.000397
O	      1.95231      2.07328      2.23249        -0.103461      0.097163      0.040651
O	      4.17332      4.21943      2.01275        -0.166500      0.069896      0.130001
O	      4.24985      2.03583      4.13712         0.244049      0.084364      0.022035
O	      6.19472      3.99626      4.08980        -0.034182      0.005308     -0.024785
O	      6.26338      2.04933      6.18026         0.089869      0.055135      0.050513
O	      8.27860      3.92661      6.11362        -0.008647     -0.063837      0.125203
O	      2.09686      3.97433      4.25703        -0.003399     -0.175730     -0.020779
O	      4.13589      6.17824      3.97334        -0.179964      0.045332     -0.180582
O	      4.05203      4.15602      6.19303        -0.037241     -0.005545     -0.065792
O	      6.17232      6.15334      6.22582         0.026822      0.058610     -0.456006
O	      6.12700      4.07964      8.29367         0.040378     -0.198258      0.086647
O	      8.24591      6.14157      8.26397         0.212654     -0.059895     -0.000878
O	      1.99748      6.34875      6.26502         0.004488      0.053140     -0.106168
O	      3.93160      8.26015      6.29572        -0.102597     -0.037935     -0.097226
O	      4.17060      6.23683      8.34648         0.025296     -0.033860     -0.033498
O	      6.15898      8.20652      8.41895         0.037268     -0.043244     -0.048863
O	      6.14876      6.33553     10.31227         0.207781     -0.046026     -0.142130
O	      8.00374      8.23772     10.34900         0.131069     -0.129260      0.108344
