# total energy = -206.74029066 eV
 
CRYSTAL
PRIMVEC
-0.011692 6.189211 6.114395 
6.263638 -0.031798 6.134568 
4.168606 4.132245 -0.013872 
PRIMCOORD
36 1
Li	      4.15570     10.23876      6.04414        -0.165850      0.029678      0.055446
Li	      8.37136      8.22708     12.13226         0.022237      0.136535      0.091255
Li	      4.12028      2.09012      2.06337        -0.105326      0.065738     -0.116799
Li	      8.16256      4.08566      4.15647        -0.034154      0.104643      0.196247
Li	      6.31183      2.10213      4.12322        -0.086634      0.077885      0.180926
Li	      2.17167      1.99940      4.06382         0.002161      0.012045      0.009726
Li	      6.30639      4.08892      6.10232         0.126410     -0.069623     -0.032968
Li	     10.39961      8.23573     10.21221         0.051908     -0.085834      0.180728
Li	      2.04924      4.17229      6.06067        -0.106193     -0.017437     -0.114054
Mn	      6.27940      2.06103      8.15444         0.140289     -0.034321     -0.281035
V	      6.13535      6.33445      8.20964        -0.715566      0.539804     -0.671197
Fe	      4.22810      4.02690      4.16192        -0.065998      0.086011      0.029581
Co	      2.09039      4.08428      2.03312         0.065858     -0.087618     -0.226263
Co	      8.36283      6.06793      6.04747         0.159221     -0.177876     -0.083324
Co	      2.07841      6.17826      4.07485         0.226084     -0.202526      0.104708
Co	      4.10154      6.34320      6.06288         0.233236     -1.195827      0.138505
Cu	      4.14286      4.15880      8.18229         0.085898      0.003444     -0.112620
Ni	      6.21686      4.12279      2.00711         0.008566      0.147914     -0.276781
O	      1.90342      2.11872      2.01237        -0.096627      0.127207      0.086049
O	      4.10241      4.24685      2.06550        -0.042923      0.097767     -0.023137
O	      4.14081      2.10178      4.08835         0.038765     -0.025380     -0.251234
O	      6.17851      4.13735      3.97516        -0.002343     -0.030485      0.287367
O	      6.10719      2.04572      6.26688         0.303452      0.130963      0.192995
O	      8.36600      4.13169      6.25698        -0.069530     -0.222389     -0.061829
O	      2.16151      4.20224      3.98418         0.032847      0.141524      0.101564
O	      4.03176      6.15029      4.02940        -0.227540      0.077602     -0.147370
O	      4.19613      4.26569      6.16728        -0.091510      0.338741      0.034556
O	      6.40564      6.15099      6.35140        -0.450704      0.138725      0.640509
O	      6.38801      4.01145      8.19320         0.049673      0.100631      0.033391
O	      8.39574      5.98976      8.27510        -0.231388      0.042133      0.075030
O	      2.12369      6.20083      6.05238         0.179178      0.078917     -0.200025
O	      4.20189      8.11170      6.10409        -0.111401      0.501824      0.048503
O	      4.27222      6.22504      8.16555         0.792116      0.025876      0.257170
O	      6.27612      8.17294      8.14051         0.003271     -0.862092      0.123611
O	      6.39831      6.12956     10.00568         0.112290      0.097560     -0.252395
O	      8.33217      8.08044     10.08409        -0.029776     -0.091758     -0.016835
