# total energy = -206.31103556 eV
 
CRYSTAL
PRIMVEC
-0.026225 6.141367 6.230184 
6.247728 0.004229 6.199524 
4.165201 4.073821 0.002726 
PRIMCOORD
36 1
Li	      4.16959     10.11472      6.23328         0.011526     -0.019925      0.057841
Li	      8.32829      4.09330      4.16134        -0.020169      0.029490      0.020257
Li	      4.09842      4.11450      4.20442         0.085704     -0.009320     -0.021319
Li	      6.20601      4.15271      6.24955        -0.010462     -0.124471      0.101675
Li	      4.19598      8.14304      4.19506         0.001707     -0.052047     -0.015497
Li	      2.13295      6.06777      4.22623        -0.009275      0.118060      0.030780
Li	      2.03985      4.11467      6.11089        -0.098299      0.102449      0.031081
Li	      4.13438      6.12336      6.22165        -0.100099      0.038649     -0.042060
Li	      4.23749      4.07063      8.23732         0.121223     -0.106295     -0.006956
Mn	      2.07241      6.11368      8.23333        -0.173752      0.080434     -0.043416
V	      6.30575      8.12735     10.49045         0.302418     -0.236208      0.269330
Fe	      8.29204      4.12760      8.31376        -0.075731      0.269231     -0.712177
Co	      4.14819      8.17136      8.28120        -0.313130      0.471339     -0.158951
Co	     10.36866      6.14870      8.33721        -0.078799     -0.166011     -0.620095
Co	      6.14307      6.14104      4.24816        -0.483473      0.251065     -0.128090
Co	      4.04961      2.16080      6.19894         0.322751     -0.121580      0.130083
Ni	      2.16194      8.20619      6.19155         0.016142      0.046652     -0.038215
Ni	      6.14199      6.10294      8.24496         0.150360     -0.213050      0.262465
O	      2.08561      1.97268      2.05418         1.151932     -0.114525      0.944657
O	      4.25367      4.12172      2.05288         0.285605     -1.113974     -0.084069
O	      4.26355      2.03028      4.04669        -0.642917      0.072835      0.201459
O	      6.24753      3.94684      3.98893        -0.079141      0.856566      0.126754
O	      6.24367      2.05544      6.07675        -0.102708      0.025443     -0.765516
O	      8.35706      4.15441      6.31985        -0.060762      0.151811     -0.171470
O	      2.08077      4.06366      4.03050        -0.104459     -1.408017      0.768351
O	      4.18148      6.11337      3.98214         1.770868      0.007219      1.880225
O	      4.16659      3.94329      6.21876        -0.105785     -0.050413     -0.039434
O	      6.25879      6.09875      6.27913        -0.168679      0.093325     -1.645351
O	      6.29692      3.99197      8.29445         0.090395      1.525374     -0.165066
O	      8.40990      6.10143      8.26400        -1.678256     -0.135761     -0.151299
O	      2.06587      6.17274      6.36207         0.010053     -0.129941      0.057944
O	      4.13069      8.18515      6.39062         0.189358     -0.086905     -0.105264
O	      4.04621      6.25369      8.29355         0.030601     -0.155999      0.022185
O	      6.10393      8.24400      8.39301         0.003216     -0.007009     -0.051917
O	      6.20943      6.32624     10.26247        -0.016418      0.118309      0.138546
O	      8.11480      8.19491     10.35670        -0.221543     -0.006800     -0.077472
