# total energy = -210.55320132 eV
 
CRYSTAL
PRIMVEC
0.020560 5.998274 6.207768 
6.408581 -0.024266 6.251880 
4.245514 4.002107 0.010082 
PRIMCOORD
36 1
Li	      8.49369      2.01077      6.22379         0.077342      0.027017     -0.050260
Li	      4.28801      1.94800      2.23714        -0.025812      0.130457     -0.020623
Li	      8.45034      3.98476      4.18453         0.048449     -0.023226      0.048040
Li	      6.28951      2.01279      4.17699        -0.078471     -0.049675      0.075236
Li	      4.33254      3.85700      4.19138         0.012260      0.027778     -0.064985
Li	      4.27378      1.99804      6.17564         0.018679     -0.053030      0.048789
Li	      6.49542      3.93877      6.19313        -0.032105      0.068507     -0.057055
Li	      6.39984      7.98057      6.30326        -0.101543      0.006225     -0.038707
Li	      8.44493      7.98297      8.32405        -0.020559     -0.023105      0.062112
Mn	      8.55688      6.02044     10.39113        -0.008058     -0.080735     -0.029518
V	      4.30512      5.89500      6.26144         0.005839      0.207646     -0.008892
Fe	      6.37871      9.90077      8.35591        -0.198806      0.230101     -0.197353
Co	     10.50891      3.98303      6.22958         0.218921      0.019357     -0.077101
Co	      0.05523      2.01033      2.04713        -0.047551      0.035281     -0.198214
Co	      2.16561      3.99534      2.06749         0.122376      0.060962     -0.181897
Co	      6.45784      5.96746      4.21151        -0.023172      0.241975     -0.206989
Co	      6.45269      4.00257     10.36124         0.104113     -0.068629      0.026162
Cu	      6.36727      6.05010      8.30152        -0.025938     -0.013313      0.123630
O	      1.98609      2.04359      2.07961        -0.011125     -0.009464      0.058405
O	      4.20754      4.07820      2.05003        -0.067001     -0.005527      0.071187
O	      4.03390      1.96423      4.19133        -0.045214      0.044414      0.097298
O	      6.36154      4.02696      4.08497         0.042040     -0.033154      0.241847
O	      6.42987      1.88095      6.37568        -0.258706     -0.504922      0.206905
O	      8.59173      3.97632      6.42429         0.150813      0.058973      0.298443
O	      2.02908      4.03508      4.03675         0.023403     -0.092772     -0.077937
O	      4.44289      6.09363      4.10665         0.035105     -0.039316      0.207643
O	      4.27752      4.14616      6.18148        -0.030774     -0.190169      0.049428
O	      6.25156      6.02075      6.32627        -0.059611     -0.096524     -0.093114
O	      6.63307      3.96730      8.41764         0.054733     -0.023166     -0.028478
O	      8.77268      5.90823      8.42172         0.066721     -0.043974      0.019049
O	      2.24623      6.00098      6.13275        -0.153492     -0.017139      0.033921
O	      4.28649      8.01190      6.05160        -0.094867      0.357302     -0.177772
O	      4.09648      6.01939      8.15082         0.045261      0.017433     -0.053209
O	      6.35698      8.00667      8.34769        -0.007342     -0.056497      0.002149
O	      6.39021      5.93401     10.35293         0.176160     -0.140990     -0.071293
O	      8.76933      7.89934     10.33753         0.087934      0.031901     -0.036848
