# total energy = -208.18704911 eV
 
CRYSTAL
PRIMVEC
-0.005290 6.417669 6.115351 
6.241110 0.005824 6.103069 
4.133954 4.241876 0.031442 
PRIMCOORD
36 1
Li	      4.15058      0.05759      4.09286         0.020313      0.021354     -0.043530
Li	      4.18226      6.39726      2.24020        -0.022339     -0.027020      0.140711
Li	      2.08163      4.27112      2.18163         0.058769      0.044253      0.139330
Li	      1.95187      2.32691      4.07421        -0.052061      0.150533     -0.003951
Li	      4.01577      4.35424      4.08978        -0.082882      0.066075     -0.017335
Li	      4.26253      8.28913      4.04281         0.083026     -0.170283      0.105775
Li	      2.19989      6.26603      4.05789         0.118380     -0.148320     -0.003456
Li	      2.15137      4.24865      5.90827        -0.079587      0.024287     -0.111257
Li	      4.17390      6.30364      5.97485        -0.022156      0.029708     -0.075285
Mn	      6.19053      6.35639      8.15485         0.023975      0.262559      0.458618
V	      4.14758     10.55509      6.09578         0.345345     -0.081947     -0.070316
Fe	      2.12149      0.07743      2.13058        -0.019803      0.014952     -0.471832
Co	      8.27580      8.57136     12.17239         0.032427     -0.060793     -0.084431
Co	      6.22025      2.14545      4.11179         0.088301     -0.239196     -0.037013
Co	      8.27647      6.38921      6.14578         0.093645      0.005166     -0.081324
Co	      6.21208      4.28894      6.10632        -0.551838      0.087827      0.397614
Co	      8.27277      8.46940      8.23677        -0.033297     -0.090611      0.084257
Ni	      4.13452      2.16129      2.14915         0.050332     -0.035771     -0.030003
O	      2.15194      2.01078      1.98149        -0.138313      0.079774     -0.114047
O	      4.22141      4.23365      1.89545        -0.035619      0.090501     -0.040525
O	      4.31718      2.13231      4.17265        -0.016921     -0.006947      0.196237
O	      6.24853      4.05986      4.08021         0.000729      0.193722      1.447912
O	      6.14106      2.05488      6.05412        -0.073301      1.088805     -0.000623
O	      8.43890      4.37877      6.17070        -1.015715     -0.031850     -0.043350
O	      2.06618      4.27485      4.05348        -0.055852     -0.045794      0.075698
O	      4.13104      6.35540      4.12548         0.089026     -0.041649      0.083704
O	      4.16905      4.07930      6.27018         1.279646      0.079958     -0.399631
O	      6.35748      6.36064      6.16717        -0.033174     -1.310194     -0.447126
O	      6.06704      4.30198      8.15100         0.496206     -0.202842     -1.489305
O	      8.10227      6.39445      8.08050        -0.041423     -0.103895     -0.168077
O	      1.86847      6.47255      6.15187         0.052249      0.029389      0.024020
O	      4.09028      8.78739      6.09385        -0.013524     -0.144142     -0.100594
O	      4.21388      6.46921      8.07587        -0.088938      0.037845     -0.017794
O	      6.25079      8.60640      8.28329        -0.277635      0.133959     -0.006066
O	      6.22395      6.59848     10.28059        -0.069468      0.158238      0.122028
O	      8.16521      8.56824     10.13792        -0.108522      0.142351      0.580969
