# total energy = -89.50702691 eV
 
CRYSTAL
PRIMVEC
0.000216 2.166707 2.164870 
6.499630 6.564366 -4.393114 
-4.341123 2.197102 -2.195623 
PRIMCOORD
16 1
Li	     -2.28347      4.59608     -2.31798         0.264587     -0.134266      0.126834
Li	      2.31040      6.81397     -4.53482        -0.258156     -0.486830      0.472454
Li	     -0.00686      4.57755     -0.03154         0.072639      0.263744     -0.222320
Li	      4.50893      6.96322     -2.40357        -0.669802     -0.339912      0.208851
Mn	     -0.21082      0.11042     -0.10654         9.244052      2.680528     -0.351788
Mn	     -0.01170      6.88320     -2.33118         1.208220     -0.745714      0.491332
Ni	     -1.96199      2.61552     -0.22908        -1.189461     -0.114106     -0.148013
Ni	      2.28115      4.59606     -2.31841        -0.698513      0.635471     -0.333443
O	      4.69184      6.90562     -4.62110        -7.097177      0.166912      0.149961
O	      0.00575      6.75952     -4.48226         0.088057     -0.679062      0.892102
O	      2.25581      9.32379     -4.76372        -1.181778     -3.637236      1.434088
O	     -2.42884      4.54698      0.00353         0.942009      0.099765     -0.339108
O	     -0.00606      4.71254     -2.43392         0.800298      0.814806     -0.647965
O	      2.12745      6.87049     -2.31887        -0.903128     -0.402907      0.152018
O	     -0.00034      2.17117      0.10611        -0.312431      1.280028     -0.998173
O	      2.42377      4.61168     -0.05901        -0.309418      0.598779     -0.886830
