# total energy = -211.32403906 eV
 
CRYSTAL
PRIMVEC
0.024989 6.334396 6.165760 
6.178880 0.001548 6.188650 
4.120508 4.239107 0.000101 
PRIMCOORD
36 1
Li	      2.18806      8.43392      6.25524        -0.151666     -0.106587     -0.033894
Li	      2.07157      0.11854      2.01304        -0.044194      0.068106     -0.167787
Li	      4.05999      8.44043      8.14768        -0.003301      0.038330      0.075953
Li	      2.02785      2.18624      4.10778         0.042343      0.019596     -0.025863
Li	      8.15033      6.34115      6.18390         0.093719      0.015223     -0.045716
Li	      6.20376      4.36929      6.17668        -0.060182     -0.029523     -0.120105
Li	      2.10952      6.30845      4.16403        -0.028573     -0.041856      0.234043
Li	      6.14511      8.40770      6.18555         0.091784      0.127798     -0.018325
Li	      4.15372      6.39209      6.16994        -0.047661     -0.151947     -0.033152
Mn	      6.22054      6.34504      8.16873         0.056988      0.104190      0.091147
V	      6.13684      2.18458      4.25562         0.030021      0.231480      0.053972
Fe	      4.12307      4.22882      8.07873         0.023627     -0.033906      0.089086
Co	      4.23776     10.41659      6.21903        -0.784393      0.107685      0.088825
Co	      8.22150      4.24541      4.17349         0.063129     -0.029407     -0.071661
Co	      0.07044      2.09986      2.07109        -0.048821     -0.198690     -0.145265
Co	      2.08199      4.20855      2.02835         0.066320     -0.025735      0.041601
Co	      4.02510      4.32838      4.18709         0.410963     -0.410163      0.201482
Co	      4.16461      8.35709      4.20100         0.270157     -0.154809     -0.047380
O	      1.99699      2.30090      2.03928         0.168267      0.061424     -0.019912
O	      3.98116      4.25369      2.08506         0.040920      0.050487      0.083455
O	      4.30982      2.09210      4.10278        -0.127111     -0.104999      0.001633
O	      6.13861      4.03406      4.06911         0.526736     -0.002597      0.014193
O	      6.21734      2.10156      6.01999         0.018973     -0.182568      0.197140
O	      8.44808      4.25799      6.25957         0.273196     -0.130415     -0.186674
O	      2.08764      4.19458      3.95981        -1.093829      0.052061      0.035510
O	      4.12823      6.29891      4.07021        -0.008109      1.113810      0.180581
O	      4.12376      4.22575      6.20800         0.010191      0.008881     -0.325882
O	      6.19978      6.33139      6.33904         0.004878     -0.025664     -0.005462
O	      6.24216      4.34975      8.28476        -0.007647     -0.143388      0.487505
O	      8.20893      6.32495      8.22373        -0.073986     -0.007815      0.023350
O	      1.89174      6.33385      6.22332         0.156714     -0.213305      0.036069
O	      4.13776      8.46505      6.11261         0.175734      0.311912     -0.827832
O	      4.27270      6.24364      8.27253        -0.052371      0.193408      0.171032
O	      6.26384      8.28508      8.33410        -0.171786     -0.162828      0.042530
O	      6.19671      6.46040     10.23425        -0.470666     -0.456403     -0.148591
O	      8.12540      8.50006     10.19016         0.649637      0.108215      0.074396
