# total energy = -196.11076356 eV
 
CRYSTAL
PRIMVEC
-0.059656 6.197299 6.114892 
6.327893 -0.022725 6.079354 
4.243687 4.132098 -0.039191 
PRIMCOORD
36 1
Li	      6.28344      6.17735     12.12289        -0.028396     -0.014496     -0.034658
Li	      2.14820      6.19706      8.16185         0.048352      0.011321     -0.016490
Li	      8.36598      4.18968      8.09585        -0.013438     -0.023051      0.003518
Li	      6.26908      6.08711      4.09966        -0.011559     -0.038481      0.019385
Li	      4.14962      4.23650      4.13003        -0.060562     -0.064291      0.045303
Li	      8.21595      6.20900      6.08292        -0.080152      0.007210     -0.039175
Li	      6.35149      4.16469      6.05909         0.003524      0.014526     -0.025455
Li	      0.10607      4.10823      4.02627         0.072654     -0.004133      0.022812
Li	      2.13622      4.06533      5.99867         0.029974     -0.019144     -0.019957
Mn	      2.16150      2.06055      0.02802         0.038782      0.034077      0.055318
V	      4.26832      2.35814      2.02273        -0.115231     -0.136871      0.023607
Fe	      6.29212      2.12783      4.13782        -0.040296     -0.116532     -0.045374
Cu	      4.22373      6.22485      2.02802         0.013961     -0.036594     -0.034377
Cu	      4.26724      4.07419      8.01874        -0.118768      0.034845      0.116560
Ni	      2.08976      6.17750      4.05753        -0.102671      0.075622      0.041385
Ni	      8.39578     10.27799     10.15020         0.014572      0.038177     -0.016151
Ni	      4.22338      6.11705      6.02399         0.013347      0.086385      0.013312
Ni	      6.27769      6.14494      8.07347         0.009458      0.059688      0.029071
O	      4.15528      4.10960      6.13061        -0.036710     -0.154798     -0.121960
O	      6.21524      4.02847      8.11732         0.116118     -0.086295      0.046789
O	      2.38092      2.02423      1.94739        -0.003857      0.026671      0.012107
O	      4.25997      4.07769      2.01381        -0.002115      0.213578     -0.028911
O	      4.22820      2.02592      3.88313         0.042374      0.106326      0.021313
O	      6.41215      4.00611      4.01339        -0.071214      0.153377      0.021448
O	      6.54154      1.98546      6.14170         0.056741      0.004150      0.052911
O	      8.51271      3.93682      6.03872         0.015529      0.007382      0.132703
O	      2.07198      4.32118      4.03673        -0.010991     -0.243285     -0.029481
O	      4.13615      6.21960      3.96487         0.110988     -0.009255     -0.071309
O	      6.24376      6.17597      6.17980         0.071338     -0.030275     -0.309610
O	      8.19836      6.27499      8.11539         0.279097     -0.072254     -0.061025
O	      2.14861      6.31938      6.06131        -0.012678      0.004001      0.083129
O	      4.07462      8.24009      6.25416        -0.001154      0.078545     -0.054568
O	      4.33431      6.04602      8.13377        -0.272366      0.010434     -0.021649
O	      6.03242      8.26678      8.12401         0.006779      0.018066     -0.047247
O	      6.27091      6.27365     10.01608         0.007962      0.020340      0.263238
O	      8.32222      8.14680     10.24132         0.030611      0.045035     -0.026515
