# total energy = -196.13674968 eV
 
CRYSTAL
PRIMVEC
0.048928 6.257270 6.236495 
6.304500 -0.011887 6.297287 
4.177546 4.186611 0.017534 
PRIMCOORD
36 1
Li	      8.40714      8.31141     12.47201        -0.095807      0.069449     -0.001082
Li	      6.39632     10.34355      8.43932         0.022393     -0.118546      0.090262
Li	      4.30421      8.31095      8.36936         0.038688      0.020592      0.112074
Li	      6.28305      2.17928      4.26846        -0.039926      0.001144     -0.031276
Li	      6.34400      6.14860      4.29530         0.034299     -0.026612      0.014701
Li	      4.29356      4.18251      4.27068         0.006364      0.012555     -0.101729
Li	      6.19569      4.14308      6.19108         0.094969     -0.005512     -0.043583
Li	      4.23885      6.18985      6.24203         0.021541     -0.058645      0.007536
Li	      4.14027      4.23692      8.30907        -0.088197      0.031742      0.045798
Mn	      8.45363      6.31694     10.45560        -0.086410     -0.179229     -0.253437
V	      2.12144      3.99746      2.07206         0.408987      0.205353      0.217435
Fe	      6.22785      6.34428      8.30766         0.185998      0.205498      0.423872
Cu	      0.07774      6.26902      6.23863        -0.094709      0.176239     -0.026556
Cu	      8.22834      4.24296      4.14193         0.137767     -0.010311      0.192269
Cu	      2.17269      4.17350      6.29629         0.131396      0.009543     -0.139920
Ni	     10.45913      6.27385      8.36957        -0.026267      0.004282      0.129537
Ni	      4.25152      2.13948      6.20209        -0.042351     -0.162008      0.090483
Ni	      4.19007      8.34271      4.23316         0.038855      0.002230     -0.216184
O	      2.08275      6.20055      6.10273         0.250634     -0.092943     -0.098833
O	      4.33061      8.45414      6.23251         0.445956      0.205377      0.060506
O	      2.06833      2.25989      2.11984         0.068156     -0.284897     -0.017449
O	      4.00663      4.21867      2.03119        -0.175282     -0.063631      0.482017
O	      4.20035      1.97205      4.21964         0.008773     -0.012248     -0.005495
O	      6.36443      4.17440      4.21060        -0.353453     -0.019159      0.161980
O	      6.27832      1.99380      6.37389         0.154910     -0.283085     -0.212859
O	      8.48365      4.21648      6.48359        -0.187754     -0.059884     -0.106747
O	      2.13108      4.30522      3.99960        -0.080044      0.076587     -0.200635
O	      4.04428      6.30909      4.11584         0.079042     -0.019079      0.105021
O	      4.14216      4.13950      6.26131        -0.425794      0.194192     -0.055392
O	      6.32789      6.36558      6.35518        -0.083915     -0.059356     -0.427740
O	      6.54000      4.22325      8.35255        -0.169774      0.065979     -0.032026
O	      8.36552      6.18859      8.48964        -0.097887      0.083941     -0.004832
O	      4.32203      6.22242      8.43774        -0.002838     -0.068885     -0.407833
O	      6.31657      8.30414      8.28318        -0.009270     -0.081811      0.525386
O	      6.44621      6.22273     10.46335        -0.004457      0.081430     -0.323739
O	      8.45894      8.20961     10.46226        -0.064592      0.159710      0.048468
