# total energy = -196.20984690 eV
 
CRYSTAL
PRIMVEC
0.007530 6.279897 6.259592 
6.200183 0.083462 6.182275 
4.215548 4.218244 -0.027190 
PRIMCOORD
36 1
Li	      2.14171      2.09754      0.10914         0.023191     -0.082900     -0.066211
Li	      2.15626      6.42889      8.25940        -0.087841     -0.073749     -0.064985
Li	      4.06890      8.29661      8.27462        -0.010408      0.077547     -0.100158
Li	      2.08939      4.17374      2.11548         0.061125     -0.030714      0.026163
Li	      4.28733      8.36186      4.19577        -0.014503      0.022113      0.162586
Li	      2.15502      6.21668      4.15004        -0.085193      0.123203      0.138539
Li	      2.01227      4.28112      6.19462         0.000013      0.061036      0.017137
Li	      4.19819      6.34898      6.30686        -0.025584      0.005817     -0.070240
Li	      6.21573      6.29127      8.19294         0.029142      0.042205     -0.048704
Mn	      4.14457      4.25705      4.07470         0.036331     -0.004103      0.196193
V	      6.35222      8.34668     10.17778        -0.030443      0.038847      0.168900
Fe	      4.28170     10.41628      6.33298        -0.207795      0.108642      0.109528
Cu	      4.15514      6.32252     10.33248         0.147398     -0.062904     -0.010141
Cu	      6.19997      2.19638      8.27019        -0.004424     -0.148866     -0.060203
Cu	      2.00036      2.20158      4.12684         0.086346      0.326725      0.168670
Cu	      6.26329      4.24958      6.19782         0.105548     -0.145906      0.246552
Cu	      4.22297      4.28124      8.27155        -0.131902      0.070405     -0.055445
Ni	      8.31189      6.39304      6.18676         0.058983      0.034712     -0.021343
O	      1.86497      6.27154      6.31287         0.629737      0.094552     -0.059485
O	      4.20530      8.59407      6.23337        -0.117163     -0.572606      0.015294
O	      4.16567      6.22635      8.40178         0.048247     -0.135842     -0.005995
O	      8.07609      8.44213     10.53108         0.141763     -0.074905     -0.002223
O	      1.99978      2.12503      2.21389         0.068693      0.032164      0.106261
O	      4.15865      4.30433      2.11847        -0.036218     -0.037125      0.092651
O	      4.34608      2.30291      4.09703        -0.163683      0.060590     -0.041396
O	      6.16619      4.05455      4.20845         0.075955      0.142731     -0.093833
O	      6.16896      2.07048      6.24211         0.054136      0.129950     -0.144677
O	      8.40862      4.33777      6.04038        -0.092185     -0.082871     -0.028851
O	      2.28133      4.23025      4.16175        -0.174213     -0.237828     -0.126831
O	      4.16415      6.19774      4.06237         0.037108      0.041106      0.140930
O	      4.24132      4.25163      5.99910        -0.226921      0.010271     -0.047551
O	      6.29959      6.24069      6.04935        -0.108969      0.302803     -0.291505
O	      6.21603      4.21407      8.15961        -0.085946      0.170517      0.041170
O	      8.39585      6.55755      8.19320        -0.035578      0.017256      0.224425
O	      6.31139      8.41039      8.44421         0.122068     -0.022808     -0.353686
O	      6.18316      6.54184     10.42059        -0.086816     -0.200063     -0.161534
