# total energy = -203.70377349 eV
 
CRYSTAL
PRIMVEC
-0.006454 6.178622 6.195558 
6.218838 -0.033831 6.223063 
4.136000 4.127441 -0.012690 
PRIMCOORD
36 1
Li	      6.22630      6.15890     12.31239        -0.014978      0.002870     -0.082225
Li	      4.17723      8.11087      8.30624         0.075925     -0.119813      0.154203
Li	      4.16286      6.15605     10.32274         0.005405      0.159890     -0.164220
Li	      6.26215      6.11363      4.20320         0.051244     -0.056218      0.084681
Li	      4.08853      2.04295      6.15902        -0.095115      0.049202     -0.036990
Li	      6.20438      4.14978      6.17143        -0.031113      0.077762     -0.016112
Li	      8.21876      6.21230     10.36740        -0.066905     -0.074119     -0.043994
Li	      4.13301      4.16590      8.28635         0.003578      0.083681     -0.176770
Li	      6.10136      6.20854      8.29548        -0.160661      0.011014      0.035817
Mn	      6.21541      2.03928      8.27103        -0.350131     -0.000239      0.316225
V	      8.27934      4.14051      8.24395         0.013288      0.165933      0.274421
Fe	      4.19832      4.05005      4.18744        -0.119442      0.154621     -0.025728
Fe	      6.16356      8.17316      6.28658         0.224299     -0.002748     -0.095145
Co	      2.05613      8.21810      6.20287        -0.054437     -0.048425     -0.345271
Cu	      6.22654      8.14659     10.29680        -0.356654      0.011694     -0.098706
Ni	      2.13873      6.15242      8.29366        -0.012439     -0.059371      0.211566
Ni	      6.14368      4.16445     10.36014         0.234248     -0.058830     -0.165131
Ni	      4.15216      6.18461      6.22473         0.170111     -0.186906     -0.031318
O	      6.19793      6.17965     10.31147         0.073697      0.093294      0.078691
O	      1.97176      2.09879      1.98311        -0.025217     -0.049954     -0.240806
O	      4.07753      4.24696      2.10794         0.034159      0.106416     -0.113984
O	      4.22788      2.12836      4.12690         0.036006     -0.396227      0.059016
O	      6.14988      4.04145      4.12125         0.304199     -0.030235      0.109064
O	      6.36519      2.02136      6.31953        -0.064959     -0.048719      0.070948
O	      8.28592      3.95463      6.41107         0.140836      0.227761     -0.031466
O	      2.09593      4.08990      3.99120        -0.094166      0.014153     -0.030471
O	      4.14652      6.13680      4.02528        -0.012085      0.204624     -0.243137
O	      4.02163      4.15245      6.14085        -0.099623     -0.129190      0.101355
O	      6.16643      6.26804      6.19672         0.123123      0.051417     -0.060092
O	      6.29479      3.97611      8.32869        -0.060379     -0.172992     -0.151960
O	      8.43569      6.04352      8.20408         0.208502      0.173304      0.043753
O	      2.11541      6.24527      6.23877        -0.266562     -0.277920     -0.144087
O	      4.08911      8.24248      6.13740         0.167271      0.212531      0.110300
O	      4.10799      6.16620      8.20591         0.077757     -0.054275      0.165063
O	      6.21240      8.24782      8.21935        -0.035746     -0.019350     -0.019223
O	      8.23876      8.22189     10.51031        -0.023035     -0.014636      0.501732
