# total energy = -202.78441538 eV
 
CRYSTAL
PRIMVEC
0.058479 6.237166 6.171181 
6.206231 0.056803 6.172658 
4.169196 4.190804 0.006027 
PRIMCOORD
36 1
Li	      4.21331      2.09822      2.16879        -0.022772     -0.030973     -0.043634
Li	      8.29062      4.26585      4.15075        -0.021970      0.026977     -0.044039
Li	      2.07541      4.18280      2.15751         0.033926     -0.005057     -0.033212
Li	      2.13577      2.15227      4.04424        -0.033167      0.087410      0.101922
Li	      4.17673      4.12389      4.09248        -0.077470      0.047400      0.048353
Li	      6.26473      4.15675      6.08824        -0.077916      0.132639      0.020457
Li	      2.07072      6.14094      4.11078         0.103311     -0.056926      0.013643
Li	      2.08353      4.20124      6.07123         0.043745     -0.117793      0.005227
Li	      6.22588      6.31987      8.36934        -0.070691      0.020872     -0.194924
Mn	      4.21128      6.25604      2.07866        -0.088706     -0.046425      0.248481
V	      4.27478      6.21067      6.08299         0.575363      0.058696      0.231730
Fe	      8.17936      6.15814      6.10494        -0.370373      0.232465      0.194499
Fe	      8.32530      8.37899      8.29991         0.016881      0.418163     -0.565083
Co	      8.30571      2.19303      6.17235         0.226792     -0.135186      0.085512
Cu	      6.24431      4.21289      2.12127         0.327376      0.011234     -0.306732
Cu	      6.28504      4.30149     10.26867        -0.076301     -0.124663      0.096957
Ni	      0.07587      6.20203      6.14514         0.100515     -0.149324      0.299560
Ni	      6.20549      2.14839      4.12998        -0.037682      0.095412     -0.028494
O	      6.28988      6.37594     10.33295         0.057664     -0.253983     -0.210929
O	      1.98555      2.05493      1.93094         0.022488      0.083655     -0.008756
O	      4.26147      4.32599      2.02429        -0.181854     -0.095277      0.105699
O	      4.15915      2.12810      4.24535        -0.285878     -0.054450     -0.246390
O	      6.25832      4.14347      4.04963         0.127387      0.002087      0.148149
O	      6.30899      2.11897      6.24335         0.098488      0.075935     -0.392311
O	      8.32266      4.19831      6.22967        -0.043951     -0.254891     -0.032375
O	      1.94469      4.18864      4.11530         0.169187      0.043263     -0.104896
O	      4.19188      6.24502      4.13956        -0.051965      0.286075     -0.493865
O	      4.12151      4.31461      6.20650        -0.071193     -0.645454      0.050043
O	      6.13784      6.28439      6.19156         0.081230      0.016974      0.002859
O	      6.15795      4.05911      8.22586         0.172146     -0.018742      0.245339
O	      8.44831      6.36487      8.10371        -0.025895     -0.097600      0.089741
O	      2.26946      6.42980      6.19629        -0.318808      0.100837      0.016772
O	      4.08898      8.27271      6.20430        -0.211725      0.420245     -0.243769
O	      4.18193      6.21853      8.06470        -0.104305     -0.045818      0.687472
O	      6.34866      8.43701      8.27620        -0.206940     -0.064254      0.114192
O	      8.45067      8.42631     10.34813         0.223063      0.036478      0.142804
