# total energy = -203.64785844 eV
 
CRYSTAL
PRIMVEC
0.044947 6.085874 6.122762 
6.615757 -0.020424 6.188703 
4.360850 4.052246 0.035143 
PRIMCOORD
36 1
Li	      0.26419      6.05287      6.00901         0.065078      0.045688     -0.003264
Li	      4.65551      6.00212     10.22754         0.046129      0.036802      0.015862
Li	      6.63979      7.98888     10.26028        -0.042280     -0.016469     -0.016942
Li	      8.70262      4.03159      8.23310        -0.050779     -0.015736      0.048694
Li	      2.23990      2.06266      4.08325         0.035390      0.023566      0.014869
Li	      8.68160      6.07556     10.26064        -0.069248     -0.030228     -0.034223
Li	      4.35495      6.11269      6.26553        -0.004616     -0.008264     -0.011767
Li	      8.78454      8.07052      8.39347        -0.011343      0.010438     -0.014854
Li	      6.65299      6.09067      8.31626        -0.017572      0.071586      0.007257
Mn	      4.48137      8.04219      8.18071         0.082464      0.024440      0.016492
V	      4.34869      4.17981      4.07575        -0.083151     -0.060613      0.170030
Fe	      8.72354      5.99616      6.29557        -0.062507      0.040325     -0.456143
Fe	      6.60903      4.09680      6.22234        -0.145921      0.064135     -0.208237
Co	      2.27361      4.06691      6.17220        -0.116673     -0.056577     -0.137496
Cu	      2.26559      8.08870      6.09279        -0.045188     -0.024017     -0.104483
Cu	     10.87272      6.06305      8.19232        -0.111053     -0.038128      0.021537
Cu	     10.86831      8.14543     10.26881         0.010712     -0.104384      0.079281
Ni	      2.35359      6.09094      8.22274        -0.024914     -0.056511      0.099329
O	      6.66116      5.94769     10.28642         0.011502      0.197299     -0.012771
O	      8.89344      8.05185     10.38422        -0.106523     -0.023087      0.100654
O	      2.49930      2.03309      1.93019         0.027840      0.116374     -0.015843
O	      4.42246      4.02015      2.19857        -0.008871     -0.061702     -0.109212
O	      4.38609      2.15292      4.02633         0.041855      0.046873     -0.114808
O	      6.25548      4.07239      4.23353        -0.027827     -0.010703     -0.047927
O	      6.39342      2.07340      6.21235        -0.042476     -0.107663     -0.006454
O	      8.56557      4.01452      6.13840         0.098130     -0.012607     -0.012173
O	      2.48441      4.07822      4.23165         0.107664     -0.012675     -0.030012
O	      4.43357      6.02652      3.97780         0.050626      0.077430      0.015420
O	      4.31395      4.04714      6.02878         0.094586      0.005862      0.031701
O	      6.70416      6.09883      6.15936        -0.003116     -0.037965      0.043801
O	      6.58457      3.98919      8.19149        -0.013368     -0.111756      0.171867
O	      8.71251      6.04711      8.15437         0.123666      0.008359      0.439766
O	      2.28608      6.01373      6.22161         0.082865      0.148051     -0.061802
O	      4.72945      8.08338      6.22227         0.076715      0.004599      0.075396
O	      4.40600      6.18942      8.26564         0.069436      0.006658     -0.001163
O	      6.45399      8.13247      8.14308        -0.037233     -0.139401      0.047618
