# total energy = -203.58975084 eV
 
CRYSTAL
PRIMVEC
-0.009726 6.210295 6.292695 
6.179413 0.013373 6.269248 
4.117095 4.122445 0.011583 
PRIMCOORD
36 1
Li	      2.07153      8.20404      6.20889         0.038203     -0.032972      0.042082
Li	      2.11719      6.13851      8.22725         0.019662      0.015063     -0.072667
Li	      6.21043      6.21130      4.26266        -0.009182      0.004574     -0.031865
Li	      4.08209      2.09794      6.25074         0.001029     -0.006880      0.025860
Li	      4.03692      8.33289      4.35262         0.008011      0.018926      0.046398
Li	      2.01066      6.21189      4.27382        -0.018094     -0.034672      0.017699
Li	      4.10497      6.16548      6.33827        -0.037317     -0.016076      0.047457
Li	      8.12125      8.38461      8.43769         0.008759      0.002680      0.002959
Li	      6.12639      6.26256      8.31196        -0.037353     -0.016991     -0.003148
Mn	      6.14098      4.20697      6.25735         0.016648      0.145368     -0.050256
V	     10.26228      6.25368      8.45546         0.038962      0.005421     -0.014168
Fe	      4.17058      8.13036      8.35630        -0.122880      0.094158     -0.136434
Fe	      2.06038      4.12637      2.17338        -0.049777     -0.032278     -0.060123
Co	      6.19283      6.22870     12.54053         0.168131     -0.052873      0.029739
Ni	      6.23860      8.24494     10.45400        -0.001978     -0.017608     -0.055567
Ni	      4.13791      6.20777     10.46883        -0.089414      0.028189     -0.034466
Ni	      4.13120      4.08437      4.20757         0.031823      0.006817     -0.007739
Ni	      2.07567      4.13969      6.25617        -0.022232     -0.022207     -0.043713
O	      1.95040      2.12905      2.08946        -0.051490     -0.059415      0.016791
O	      4.11150      4.21413      2.00314        -0.027101      0.021671      0.027064
O	      4.16735      2.02501      4.07955         0.010304      0.002002      0.054447
O	      6.17899      4.10885      4.36860         0.063567      0.014728      0.086515
O	      6.18002      2.07990      6.40465        -0.025857      0.059678      0.019775
O	      8.20425      4.16706      6.36103        -0.153015      0.015418      0.047151
O	      2.11511      4.11573      4.12315        -0.048281      0.000473      0.033007
O	      4.13500      6.16989      3.95511         0.007400      0.073315      0.003443
O	      4.21398      4.15646      6.22961         0.113359     -0.074248      0.078186
O	      6.15864      6.08960      6.29682         0.030559     -0.119363     -0.004660
O	      6.20283      4.03173      8.25570        -0.029807     -0.050759     -0.035390
O	      8.42628      6.15012      8.38830         0.078580      0.078275      0.008283
O	      1.89954      6.15553      6.24812         0.016239      0.206598     -0.028053
O	      4.12826      8.41470      6.36731        -0.117821     -0.076168      0.043562
O	      4.07600      6.24520      8.43517        -0.019462     -0.036365     -0.131152
O	      6.12128      8.23997      8.34091         0.080548      0.004102      0.068219
O	      6.11730      6.24291     10.66651         0.066031     -0.005104     -0.001056
O	      8.21636      8.41839     10.47988         0.063246     -0.143476      0.011821
