# total energy = -89.78516640 eV
 
CRYSTAL
PRIMVEC
2.004007 3.970520 1.966482 
3.915839 -1.951107 -1.942210 
0.009339 3.962005 -3.925312 
PRIMCOORD
16 1
Li	      1.88527      1.89318      0.00829        -0.281938     -0.365461      0.372284
Li	      3.70040      1.94511     -1.86292         0.521911     -0.883518     -0.001581
Li	      1.88855      3.77390     -1.85606        -0.473505      0.077156      0.138170
Li	      3.79762      3.75226     -3.69702         0.095441      0.751619     -0.508981
Mn	      0.01205      3.75705     -3.71624        -4.050285      0.884816     -1.856365
Mn	      3.76466      3.79422      0.00179         2.307255      1.918926      3.394826
Ni	      5.62735      3.81302     -1.85344         2.719172      0.104693      0.128846
Ni	      1.86999      1.88504     -3.70578        -1.103675     -1.253210     -2.148246
O	      3.74666      3.79476     -1.72734        -0.824107      0.380751     -2.937374
O	      3.75070      1.90338     -3.83168         1.816845     -0.439671     -0.365654
O	      3.87660      2.00862      0.01966         1.140540     -2.290976      1.043615
O	      3.61185     -0.07417     -1.84959         1.631060     -1.793835      0.683152
O	      2.00527      3.77460      0.09726        -2.561472     -0.012828      1.466427
O	      1.86919      1.74458     -1.85919        -1.321653     -0.214884      1.517562
O	      1.90814      5.80735     -1.85485        -0.895592      1.315113     -0.400578
O	      1.77187      3.77696     -3.81137         1.280006      1.821308     -0.526102
