# total energy = -205.80998835 eV
 
CRYSTAL
PRIMVEC
0.044002 6.370983 6.256830 
6.133267 0.041999 6.259414 
4.095824 4.255685 0.021515 
PRIMCOORD
36 1
Li	      8.17759      2.20462      6.30529        -0.047691      0.023164      0.097451
Li	      4.02010      2.07059      2.14669        -0.067495     -0.087793     -0.003646
Li	      8.16398      4.33959      4.24135        -0.019199     -0.037028     -0.070428
Li	      6.16840      6.42639      4.28955         0.007650      0.042582     -0.099872
Li	      8.10916      6.29616      6.20315         0.051980      0.069090      0.049369
Li	      6.27535      4.43436      6.21088        -0.043658     -0.046873      0.027933
Li	      2.09837      6.35181      4.22721         0.095693      0.034954     -0.094234
Li	      6.12428      8.40837      6.24319         0.050129     -0.039078      0.001532
Li	      6.12323      6.37512      8.19375         0.021990      0.035978      0.012486
Mn	      6.12127      2.13067      4.23513         0.112379     -0.070842      0.165356
V	      8.15712      8.47335      8.25312         0.034237     -0.370259      0.133556
Fe	      4.09023      4.24210      0.03353         0.087910      0.099537     -0.044234
Fe	      0.08555      4.26281      4.18861        -0.258993     -0.190968      0.148893
Co	      0.13514      2.14516      2.10557        -1.480815      0.160678     -0.247433
Co	      4.06901      4.21505      4.23717         0.089197      0.102425      0.176231
Cu	      6.14638      4.27147      2.12295        -0.093605      0.205267      0.054512
Cu	      8.19901      4.28905      8.32388        -0.017216     -0.165355      0.047663
Cu	      4.14077      6.44950      6.26039         0.047892      0.001286     -0.217297
O	      6.09528      6.41271      6.23746         0.007234     -0.026307      0.042461
O	      2.05471      6.36205      6.39936         0.101237     -0.030191      0.178274
O	      1.92792      2.12951      2.13390         0.686331     -0.030711      0.055903
O	      4.09051      4.30516      2.05174         0.301439      0.522554      0.131239
O	      4.23659      2.20003      4.15461        -0.048517     -0.010052     -0.024505
O	      6.04951      4.07171      4.11689        -0.001942      0.053675     -0.173412
O	      6.16987      2.08711      6.15557         0.006366      0.048262     -0.155608
O	      8.26736      4.28816      6.39314        -0.205881      0.020421      0.068840
O	      2.06532      4.30528      4.03905         0.106320      0.032909     -0.084655
O	      4.08659      6.41908      4.20623         0.117141      0.039569      0.024016
O	      4.08522      4.36563      6.42523         0.015091     -0.010427     -0.089931
O	      6.05688      4.33793      8.46421         0.138605     -0.487818     -0.153639
O	      8.38495      6.66387      8.29330         0.319735      0.018940      0.101829
O	      4.11946      8.52863      6.18549         0.047557      0.023680     -0.027681
O	      4.08805      6.23562      8.28014        -0.035277     -0.014962      0.296610
O	      6.33221      8.36742      8.50870        -0.106005      0.077231     -0.114081
O	      6.19044      6.46669     10.54435        -0.002122      0.010035     -0.196248
O	      8.18410      8.58754     10.29278        -0.017699     -0.003572     -0.017249
