# total energy = -205.79301569 eV
 
CRYSTAL
PRIMVEC
0.029742 6.148356 6.221003 
6.211543 0.020934 6.230116 
4.167446 4.131924 -0.012985 
PRIMCOORD
36 1
Li	      8.35251      8.24414     12.31888         0.016095      0.011033     -0.054750
Li	      4.25896      8.22684      8.29964        -0.057404      0.008668      0.151692
Li	      8.27668      4.15645      4.16588         0.008298      0.175442     -0.001502
Li	      6.26560      8.22976     10.33122        -0.049955     -0.038529      0.008530
Li	      2.08169      4.09924      2.07855         0.081224     -0.054695      0.051090
Li	      4.16185      4.10199      4.22096        -0.046497     -0.107069      0.011330
Li	      4.11554      2.08332      6.18744        -0.012740      0.015421     -0.188072
Li	      4.18836      8.22819      4.15692         0.077124     -0.075201      0.027071
Li	      2.10961      4.10059      6.20287        -0.008386     -0.020519     -0.048079
Mn	      6.22393      4.11183      2.11740         0.014649      0.073923     -0.035897
V	      6.15366      2.13827      8.23224         0.045134     -0.091657      0.129077
Fe	     10.26313     10.13475     12.34792         0.174845      0.065474      0.118695
Fe	      4.15983      6.19905      6.17770         0.013257      0.089387     -0.035677
Co	      2.30796      2.17208      4.18832        -1.503128     -0.255992     -0.022745
Co	      2.08781      6.12760      4.18049         0.201315     -0.094518      0.051520
Ni	      6.28535      4.14080      6.12582         0.101978     -0.010260      0.000950
Ni	      8.28740      8.25829      8.30990         0.086761      0.022295     -0.060901
Ni	      6.22207      6.24670      8.32695        -0.012207     -0.031170     -0.068811
O	      1.87994      1.96591      2.19699         0.360132      0.024079      0.423849
O	      4.28548      4.24044      1.99692        -0.007505      0.042570     -0.028488
O	      4.06335      2.10775      4.15764         0.367619      0.009320     -0.118023
O	      6.24520      4.21730      4.05567         0.238967      0.591390     -0.098010
O	      6.22721      2.03965      6.42274         0.031204     -0.050356     -0.109974
O	      8.35290      4.11307      6.19878        -0.121944     -0.055141      0.023329
O	      2.09849      4.17105      4.12571        -0.004100     -0.369308     -0.083565
O	      4.09609      6.16223      4.06224         0.064952      0.065448     -0.007205
O	      4.25840      4.23001      6.26735        -0.082003     -0.053146      0.013157
O	      6.18775      6.18208      6.24947         0.293176      0.151979     -0.380665
O	      6.24200      3.98999      8.26056         0.056965      0.008274      0.050237
O	      8.46153      6.15815      8.27831        -0.036335     -0.048426     -0.013330
O	      2.08587      6.16513      6.36555        -0.087486      0.016951      0.071121
O	      4.16072      8.19992      6.23221        -0.020368     -0.073821     -0.007173
O	      4.08520      6.18515      8.27179        -0.060617      0.006285      0.013096
O	      6.25525      8.33069      8.31688        -0.053291      0.158691      0.073218
O	      6.36194      6.15852     10.35948         0.030119      0.006771      0.061981
O	      8.32135      8.01922     10.31357        -0.099850     -0.113593      0.082922
