# total energy = -208.71102729 eV
 
CRYSTAL
PRIMVEC
-0.010580 6.147066 6.091247 
6.535232 -0.025662 6.106463 
4.336247 4.087440 0.003866 
PRIMCOORD
36 1
Li	     10.73120      4.08157      5.99924        -0.074791      0.063451      0.128417
Li	      8.80588      8.16671     12.05098         0.017911     -0.003530      0.099701
Li	      8.77687     10.13974     10.18827        -0.006638      0.005555      0.008112
Li	      4.40462      4.06433      4.04938        -0.025945      0.071273      0.001273
Li	      6.60442      4.02402      6.05278         0.050339      0.020012      0.110896
Li	      6.43341      4.18662     10.17182         0.064058     -0.083218     -0.050001
Li	      8.48830      6.26641     10.18942         0.057189     -0.046409     -0.034057
Li	      8.75564      8.16471      8.25603         0.146202     -0.096266     -0.081043
Li	      6.51417      6.08757      8.29659         0.048589     -0.058321     -0.132603
Mn	      4.35580      2.02770      6.05489        -0.187647     -0.094866      0.359153
V	      4.35676      6.07083      6.11528        -0.091278     -0.034739     -0.258330
Fe	      8.65353      4.06544      8.17586        -0.215899      0.176370      0.059703
Fe	      2.13147      4.13078      6.07078         0.135238     -0.202604     -0.280954
Co	      4.39237      2.07158      2.06020        -0.327265      0.053040      0.391427
Co	     10.79366      6.11309      8.15770         0.126100     -0.129209      0.126213
Co	      6.54328      6.07084      4.07529        -0.093233      0.417247      0.159043
Cu	      2.19845      6.14347      8.14408        -0.093909      0.176650      0.082893
Cu	      6.64666      8.13829     10.14995         0.303511      0.084500      0.199764
O	      6.53377      6.21566     10.17915        -0.052011     -0.016778      0.006121
O	      8.61025      8.19618     10.17719        -0.090509      0.008269      0.013974
O	      2.21956      2.02154      2.13167        -0.165485     -0.020233      0.026473
O	      4.17174      4.25075      2.03062        -0.124898     -0.470713     -0.029417
O	      4.23037      2.01771      4.09665        -0.519847     -0.022571      0.170648
O	      6.49894      4.12098      3.98934        -0.113183      0.143587     -0.069182
O	      6.26293      2.05947      6.06416        -0.185157      0.020642      0.013532
O	      8.64338      4.21416      6.18116         0.049525     -0.006997     -0.190164
O	      2.15177      3.99589      4.07351         0.002286     -0.424862      0.075470
O	      4.47957      6.09916      4.21595         0.738447     -0.006918     -0.207408
O	      4.18236      4.01124      6.11175         0.132426      0.161330     -0.025758
O	      6.57311      6.13308      5.98744         0.075682     -0.042512      0.000221
O	      6.62937      3.85643      8.16846         0.121856      0.356628     -0.092248
O	      8.70018      6.09577      8.01703         0.064254     -0.009408     -0.054765
O	      2.38063      6.10531      6.14223         0.150968      0.108442     -0.086407
O	      4.45211      8.10856      6.19327        -0.088684     -0.077607     -0.802950
O	      4.56195      6.09461      7.90506        -0.062734      0.016183      0.241464
O	      6.39094      8.26280      8.11779         0.234532     -0.035417      0.120790
