# total energy = -210.66145645 eV
 
CRYSTAL
PRIMVEC
0.037056 6.165827 6.400003 
6.139371 0.035426 6.401730 
4.084043 4.102793 0.032947 
PRIMCOORD
36 1
Li	      8.15762      2.11107      6.38953        -0.009269      0.001317     -0.055601
Li	      8.24246     10.26142     10.70031        -0.016547     -0.026230      0.037087
Li	      0.04340      2.06496      2.14012        -0.007608     -0.018476     -0.012126
Li	      2.08267      2.08649      4.20681        -0.002603      0.008387      0.038976
Li	      8.20079      6.16611      6.45984        -0.010062      0.038957     -0.000494
Li	      6.12281      4.23702     10.59996        -0.010908      0.027599      0.025647
Li	      8.16351      6.19265     10.64418         0.016861     -0.011033      0.007806
Li	      2.10690      4.12726      6.39091         0.059447      0.002982     -0.020399
Li	      6.16481      6.17401      8.65172        -0.007724      0.003970      0.035605
Mn	      8.18091      4.14513      8.55698         0.102665     -0.030504      0.103327
V	      4.16827      6.28738      6.34639         0.037040     -0.196287      0.123140
Fe	      6.22656      6.29004     12.70080        -0.024813     -0.005420      0.182372
Fe	      8.20655      8.10856      8.64632         0.075021      0.153829     -0.366692
Co	      6.16824      8.23324     10.67297         0.255738     -0.133415      0.039447
Co	      4.08785      4.06955      4.36023        -0.230553     -0.254805     -0.273317
Co	      6.19219      4.09654      6.42617        -0.017527      0.036326      0.022003
Ni	      2.02794      0.05065      2.13742        -0.065534     -0.007501      0.045417
Ni	      4.09031      2.02365      2.19666         0.082089      0.001162     -0.021186
O	      2.06761      2.14234      2.16678        -0.129971      0.136490      0.000072
O	      4.03305      4.09935      2.06288        -0.142482      0.093519     -0.110862
O	      4.19044      2.15494      4.24992        -0.127806      0.284726      0.122225
O	      5.99754      4.03345      4.26178         0.071477      0.112751      0.124420
O	      6.16547      2.07919      6.21894        -0.038190     -0.017955     -0.063563
O	      8.24661      4.14186      6.60748        -0.035783      0.040101      0.012688
O	      2.19541      4.10627      4.09857         0.040008      0.074352      0.091254
O	      4.06255      6.04222      4.54427         0.072637     -0.131603     -0.115644
O	      4.09039      4.22163      6.49280        -0.012201      0.015158      0.224295
O	      5.96214      6.17424      6.42182        -0.018199     -0.006782     -0.053712
O	      6.21377      4.11733      8.56811         0.082267     -0.012660      0.052147
O	      8.21391      6.15343      8.53817        -0.020297     -0.238208      0.018375
O	      2.11972      6.15689      6.48642         0.019744      0.029141     -0.081797
O	      4.12730      8.10834      6.39968        -0.001542      0.088912     -0.045285
O	      4.08603      6.13247      8.36194         0.099006     -0.053597     -0.059197
O	      6.17657      8.25257      8.72393        -0.013948     -0.099628     -0.044865
O	      6.14036      6.28102     10.78329        -0.019398      0.049579     -0.192352
O	      8.11846      8.26620     10.56418        -0.051033      0.044848      0.210791
