# total energy = -209.69522037 eV
 
CRYSTAL
PRIMVEC
-0.017134 6.160718 6.506705 
6.195700 0.015964 6.473175 
4.122877 4.077552 0.019832 
PRIMCOORD
36 1
Li	      8.21516      2.13563      6.55757        -0.033781      0.112504      0.063274
Li	      6.17614      4.09329      2.48231         0.028865      0.016128      0.122953
Li	      8.12872      4.17097      4.41231        -0.071086      0.088382      0.118518
Li	      6.12113      2.18035      4.43880        -0.076605      0.055709      0.076850
Li	      8.29264      4.05472      8.44547         0.055158     -0.073433     -0.229165
Li	      6.24963      5.98503      4.36245         0.086347     -0.063678     -0.057785
Li	      4.27234      4.04704      4.44684         0.097011     -0.078026     -0.053397
Li	      4.13149      2.04583      6.27158         0.086487     -0.151504     -0.117398
Li	      6.27745      4.08881      6.29431         0.126577     -0.044603     -0.057640
Mn	      0.09027      1.99068      2.10219         0.189893     -0.019212     -0.088445
V	      8.26181      6.14377     10.78469         0.051937     -0.132605      0.103960
Fe	      4.12966      8.16658      4.35976         0.028729     -0.141521      0.082295
Fe	      6.13927      6.17369      8.57542         0.029034     -0.165731      0.117705
Co	     10.26588      4.12525      6.50834         0.052379      0.361726      0.566602
Co	      4.03558      2.07929      2.34367        -0.255023     -0.040592     -0.161217
Co	      6.15864      8.19000      6.51939        -0.086412      0.123511     -0.054797
Co	      4.07879      4.17225      8.62195        -0.109537     -0.105874     -0.232929
Cu	      4.07329      6.14037      6.54816        -0.090396      0.027054     -0.007601
O	      6.20117      4.05490      4.42280        -0.091962      0.046924     -0.059389
O	      2.00125      2.04720      2.15458        -0.091849      0.032968      0.070033
O	      4.11950      4.11769      2.06928        -0.017776      0.123744     -0.755945
O	      4.13726      2.09946      4.19667        -0.017825      0.056187      0.280800
O	      6.19592      2.01155      6.67919         0.033650     -0.536783     -0.089693
O	      8.45701      4.12396      6.42887        -0.032207     -0.101197      0.065315
O	      2.01546      4.21829      4.51934         0.055768     -0.059805      0.062667
O	      4.05926      6.15737      4.13317         0.020025     -0.054917     -0.129346
O	      3.93754      4.21239      6.58345         0.042644     -0.159343      0.969071
O	      6.12122      6.24896      6.60545         0.047587      0.081300     -0.202193
O	      6.20439      4.09103      8.73693        -0.705824      0.140825     -0.087372
O	      8.25171      6.15449      8.80377        -0.092366      0.322563     -0.188040
O	      1.96862      6.07137      6.33323         0.065831     -0.133438      0.020376
O	      4.18452      8.15720      6.43077         0.108619      0.413894      0.026714
O	      4.18264      6.19297      8.78745        -0.035130     -0.609490      0.045697
O	      6.11262      8.16470      8.45556         0.841835      0.220075      0.033434
O	      6.29084      6.10525     10.73597        -0.108779      0.137038      0.316094
O	      8.31859      8.01400     10.82590        -0.131819      0.311221     -0.570008
