# total energy = -199.87641667 eV
 
CRYSTAL
PRIMVEC
0.036623 6.288801 6.339690 
6.096877 0.047875 6.328448 
4.087488 4.208128 0.008825 
PRIMCOORD
36 1
Li	      4.10284      4.21376      0.03977        -0.106553      0.051114      0.051109
Li	      2.03874      6.30343      8.32880         0.087086      0.023693      0.032035
Li	      8.24577     10.45205     10.59471        -0.075759      0.233840     -0.004416
Li	     10.13370      6.23299      8.37732         0.020241     -0.026153     -0.125861
Li	      8.17416      4.31836      8.32719        -0.026342     -0.109179     -0.140189
Li	      8.18473      6.33812      6.37659         0.074100     -0.034439     -0.075823
Li	     10.10855      8.53270     10.68803         0.215445      0.020233      0.085866
Li	      4.07405      6.32722      6.41027         0.085498     -0.019253      0.122115
Li	      8.19235      8.43459      8.48720         0.041667      0.137905     -0.150400
Mn	      6.09696      4.21043      6.34105         0.223354     -0.297600      0.298571
V	      6.05012      6.34436      4.18064         0.309979     -0.050251      0.039636
Fe	      4.10717      2.19906      2.06768        -0.157334     -0.291443     -0.072751
Fe	      6.15797      6.28812      8.55326        -0.756169     -0.001346     -0.463432
Cu	      2.10043      4.27019      6.38131        -0.188645      0.276966      0.224451
Ni	      8.18044      8.45102     12.59733         0.170538      0.402999      0.806830
Ni	      6.15719      8.41241     10.58269        -0.327466      0.122777     -0.007588
Ni	      4.07585      4.19299      4.20215         0.036398      0.002200      0.070565
Ni	      8.18472      6.40621     10.57373        -0.183554      0.686603      0.110695
O	      2.07259      2.05531      2.33816         0.016791     -0.041405      0.128891
O	      4.08025      4.13063      2.18349         0.033656      0.103330     -0.080766
O	      3.97429      2.12931      4.16379        -0.061883     -0.092709     -0.043446
O	      6.11378      4.31737      4.35192         0.113722     -0.037633     -0.043957
O	      6.13042      2.26991      6.32345        -0.466012      0.061518     -0.093917
O	      8.01543      4.06251      6.33993        -0.102487      1.013903     -0.019853
O	      2.02476      4.01094      4.39010        -0.134154      0.179719     -0.256741
O	      4.23700      6.29668      4.17536        -0.568220      0.090090      0.030472
O	      4.10659      4.22143      6.25771         0.335211     -0.046651     -0.130792
O	      6.16896      6.12120      6.16048        -0.006091      0.232629     -0.015259
O	      6.08950      4.36905      8.24464         0.011604     -0.296422     -0.044145
O	      8.00623      6.29808      8.50634         1.257322      0.055248      0.869716
O	      2.10201      6.52104      6.28599         0.042810     -1.561496     -0.850818
O	      4.15448      8.45186      6.43273        -0.007355      0.006407     -0.174216
O	      4.30765      6.41269      8.45189        -0.703289      0.103833      0.011089
O	      6.16400      8.33477      8.38060         0.153582      0.118695      0.279165
O	      6.16002      6.36335     10.49355         0.476094     -0.061807      0.497956
O	      8.15319      8.41719     10.61414         0.166213     -0.955917     -0.864791
