# total energy = -200.35414486 eV
 
CRYSTAL
PRIMVEC
0.021714 6.141834 6.326759 
6.306892 -0.049151 6.398625 
4.169024 4.106321 0.002714 
PRIMCOORD
36 1
Li	      6.23452      2.07911      4.26908         0.029205     -0.005583      0.004330
Li	      6.39519      6.06390      4.44605        -0.009582     -0.022082      0.029527
Li	      4.30496      3.98635      4.46090         0.082386      0.001748      0.010995
Li	      4.07426      2.17182      6.20846         0.026811     -0.016280     -0.095967
Li	      6.14236      4.17951      6.39848         0.053170     -0.052919     -0.020848
Li	      6.28879      4.05985     10.58534        -0.015159      0.021000     -0.030524
Li	      6.43576      8.05653      6.40797        -0.028743      0.033998      0.038690
Li	      4.17590      4.10815      8.30223        -0.055879     -0.031550      0.015443
Li	      6.32313      6.04560      8.28630         0.006024     -0.001441      0.001152
Mn	      0.03590      6.10952      6.29153        -0.059992      0.029465      0.045444
V	      2.13753      6.09549      4.13922        -0.099175      0.089405      0.011043
Fe	      4.26987      2.01124      2.25455         0.327421     -0.166449     -0.080178
Fe	      6.35670      2.11545      8.48702        -0.211302     -0.101857      0.030059
Cu	      8.40357      8.14277     12.68909        -0.067391     -0.002465     -0.002846
Cu	      6.30139      4.04249      2.25157         0.098183     -0.117623      0.052510
Ni	      8.33323      4.06921      4.27536         0.096666     -0.095130     -0.020814
Ni	      8.37774      4.06721      8.49441         0.061289      0.021510     -0.139339
Ni	      4.31341      6.05010      6.36926        -0.075869      0.201353     -0.029494
O	      4.20555      4.12066      6.35979        -0.033872     -0.205538     -0.034863
O	      6.24806      6.13701      6.35990         0.174626      0.039873      0.000666
O	      2.07337      2.00958      2.00464         0.063198      0.095048      0.179533
O	      4.19583      4.11637      1.96144        -0.205698      0.088500     -0.040429
O	      4.17820      2.00627      4.15276         0.008437      0.112607      0.081071
O	      6.33259      4.08487      4.19898        -0.204578      0.012386      0.111398
O	      6.31403      1.84141      6.48559         0.017148      0.019705     -0.019010
O	      8.57725      4.00723      6.38505         0.001216      0.076518      0.053997
O	      2.05893      4.31186      4.17227         0.008903     -0.105801      0.085125
O	      3.98252      6.15827      4.20305         0.016185     -0.001948     -0.059143
O	      6.38895      3.97936      8.48587        -0.112429      0.171079      0.024171
O	      8.40894      6.14708      8.70326         0.032526      0.062740     -0.018204
O	      2.00975      6.16756      6.19770        -0.009425     -0.136241     -0.000191
O	      4.13827      8.25810      6.43172         0.080969      0.022745     -0.003290
O	      4.12202      6.15525      8.47084         0.102689      0.111848     -0.077238
O	      6.23228      8.26179      8.46309        -0.176849     -0.079467      0.010880
O	      6.40100      6.08816     10.79332         0.067418     -0.013090      0.001625
O	      8.38630      8.03280     10.73020         0.011474     -0.056064     -0.115280
