# total energy = -200.66996897 eV
 
CRYSTAL
PRIMVEC
-0.003960 6.130063 6.247355 
6.196879 -0.017289 6.260429 
4.147111 4.111454 -0.027188 
PRIMCOORD
36 1
Li	      8.25608      2.07937      6.25468         0.027570      0.019946     -0.019229
Li	      2.12906      0.09211      2.08097        -0.001198      0.019564      0.028865
Li	      4.02390      2.01374      2.05634        -0.056726      0.004839     -0.032506
Li	      8.26191      4.09641      4.16873        -0.011344     -0.006849      0.034259
Li	      6.23780      8.17641     10.43776         0.018985      0.027077      0.006644
Li	      0.08857      2.07099      2.06281         0.059761      0.000035      0.005112
Li	      2.04835      3.99300      2.01303         0.004154     -0.086137     -0.033734
Li	      6.18298      6.12769      4.11534        -0.008038     -0.048753     -0.008507
Li	      8.30263      6.10048      6.25962         0.012913      0.010179      0.018068
Mn	      6.12854      0.05859      6.21914         0.078008     -0.075568      0.004064
V	      4.23268      3.99490      3.95810        -0.010688      0.021411     -0.053021
Fe	      6.22858      8.14435      6.22460        -0.058380      0.007918      0.044002
Fe	      8.27410      8.18953      8.38786        -0.066162      0.041531     -0.037433
Ni	      8.26547      6.14873     10.41937        -0.010121      0.007686     -0.011002
Ni	      6.27418      4.03904      6.25060         0.013520      0.004438     -0.028998
Ni	      4.16342      8.14491      4.10498         0.037057     -0.009795      0.033881
Ni	      4.10160      6.15509      6.25228        -0.061179      0.074474      0.045548
Ni	      6.18810      6.14186      8.33237         0.027307      0.066806      0.106694
O	      2.08138      2.04662      2.09040        -0.041125     -0.005010      0.004849
O	      4.14480      4.12289      2.18120        -0.019115      0.020934     -0.169543
O	      4.10736      2.25453      4.11959        -0.018250     -0.163016      0.004811
O	      6.01674      4.10178      4.21426         0.074632      0.002810     -0.089107
O	      6.21821      1.93261      6.26926        -0.022070     -0.036155     -0.015630
O	      8.37985      4.11837      6.23253         0.056142      0.021683      0.014937
O	      2.16849      4.11047      4.20686         0.012396     -0.038709     -0.102235
O	      4.08712      6.03846      4.22123         0.090296     -0.058303     -0.113558
O	      4.11166      4.10737      6.17595         0.031472     -0.155143     -0.031232
O	      6.15069      6.14940      6.27796         0.114935     -0.041429     -0.102526
O	      6.10482      4.10469      8.31177         0.083534     -0.094909     -0.001876
O	      8.22407      6.32087      8.36264         0.106030     -0.162178     -0.084771
O	      1.95126      6.08367      6.24953        -0.076946      0.055471      0.042888
O	      4.21361      8.26235      6.19072        -0.076153      0.160703      0.103539
O	      4.14459      5.97311      8.31790        -0.065690      0.160302      0.085930
O	      6.32721      8.17484      8.24115        -0.065480      0.094316      0.077292
O	      6.20745      6.09847     10.52137        -0.077528      0.106647      0.156536
O	      8.32187      8.17547     10.33233        -0.102520      0.053182      0.116990
