# total energy = -224.01905562 eV
 
CRYSTAL
PRIMVEC
0.017744 6.262954 6.121531 
6.350616 0.029625 6.109667 
4.242395 4.176150 0.011123 
PRIMCOORD
36 1
Li	      6.30993      4.12753      2.08267        -0.111068     -0.037174      0.043512
Li	      4.30040      2.14584      2.10254         0.064749      0.171908      0.024239
Li	      2.13618      4.26050      2.18899         0.015138      0.018757     -0.015189
Li	      4.17295      4.25459      3.97141        -0.059455      0.022951     -0.011438
Li	      0.08875      4.08829      3.99404         0.013278     -0.022627     -0.024033
Li	      8.51621      6.25293     10.06250         0.024520     -0.017430     -0.028213
Li	      4.25317      6.23925      6.12721         0.043880     -0.063856     -0.071574
Li	      8.49074      8.33538      8.17386        -0.027867     -0.111161      0.031139
Li	      6.39403      6.25836      8.25470         0.133582     -0.012984     -0.001338
Mn	      6.28020      4.23612      6.17175        -0.007961      0.063200      0.206071
V	      2.29851      8.25802      6.20340         0.031098      0.075925     -0.121710
Cr	      4.27006      4.17195      0.05433        -0.211137      0.030463     -0.166511
Cr	      4.25358      6.29671     10.07977         0.128864     -0.081728     -0.310921
Cr	      8.46040      6.29364      6.18047         0.011514      0.004885      0.028315
Cr	      2.15919      4.19054      6.14411         0.018761     -0.055238     -0.027424
Co	      2.08755      2.12858      4.04359        -0.150961      0.092437      0.059262
Cu	      6.37812      8.36380     10.04305         0.094103     -0.003028     -0.084263
Ni	      4.18878      6.25931      2.13685        -0.004296      0.059725      0.000872
O	      2.07952      2.10109      1.89824         0.077755     -0.032914      0.088237
O	      4.24981      4.25451      1.96386         0.054431     -0.162464      0.088482
O	      4.05040      2.00141      4.11685        -0.113430     -0.159183      0.005024
O	      6.46367      4.23391      4.19083         0.051429      0.108580     -0.041218
O	      6.32267      2.11264      6.01714        -0.018159     -0.006515      0.107078
O	      8.52448      4.18971      6.06344         0.036865      0.007657     -0.081164
O	      2.11506      4.05350      4.17092         0.004375     -0.033809     -0.016260
O	      4.44907      6.27264      4.09950         0.137669     -0.030128      0.106125
O	      4.18085      4.08980      6.09042        -0.010138      0.036165     -0.001045
O	      6.44413      6.30832      6.06308        -0.020680     -0.009740     -0.056724
O	      6.34033      4.15831      8.01647        -0.007433      0.101463     -0.127341
O	      8.51040      6.27989      8.11298        -0.155157      0.019760      0.034529
O	      2.05899      6.29576      6.06473         0.038615     -0.013074     -0.000830
O	      4.24198      8.44246      6.18113         0.072114     -0.053271      0.005770
O	      4.21977      6.25026      8.28765        -0.045094      0.022953      0.300722
O	      6.36027      8.38813      8.12232        -0.053805      0.021269     -0.032873
O	      6.20934      6.38404     10.24492        -0.084775     -0.106790      0.035218
O	      8.55404      8.48821     10.42827         0.028673      0.155014      0.055476
