# total energy = -90.52316928 eV
 
CRYSTAL
PRIMVEC
2.014554 3.991418 1.976832 
3.936448 -1.961376 -1.952432 
0.009388 3.982858 -3.945972 
PRIMCOORD
16 1
Li	      1.90517      1.91316      0.00838        -0.232615     -0.307341      0.305931
Li	      3.73945      1.96563     -1.88258         0.444447     -0.773731      0.005796
Li	      1.90848      3.81372     -1.87565        -0.404400      0.063067      0.115251
Li	      3.83770      3.79186     -3.73604         0.070481      0.647928     -0.442375
Mn	      0.01218      3.79670     -3.75546        -3.559321      0.816480     -1.691510
Mn	      3.80438      3.83427      0.00181         1.980668      1.641374      2.918969
Ni	      5.68674      3.85327     -1.87300         2.365859      0.091270      0.132135
Ni	      1.88973      1.90493     -3.74489        -0.926516     -1.050661     -1.850461
O	      3.78620      3.83480     -1.74557        -0.699578      0.299600     -2.492126
O	      3.79029      1.92348     -3.87212         1.563596     -0.364267     -0.317497
O	      3.91751      2.02982      0.01986         1.029052     -1.945313      0.901912
O	      3.64997     -0.07496     -1.86911         1.436077     -1.630682      0.609649
O	      2.02644      3.81444      0.09829        -2.150222     -0.043460      1.309876
O	      1.88892      1.76299     -1.87881        -1.137872     -0.191678      1.300911
O	      1.92827      5.86864     -1.87443        -0.808730      1.189653     -0.348253
O	      1.79057      3.81682     -3.85159         1.029073      1.557761     -0.458207
