# total energy = -227.41988032 eV
 
CRYSTAL
PRIMVEC
-0.004253 6.236050 6.243846 
6.242487 0.007096 6.232395 
4.162499 4.150486 0.003960 
PRIMCOORD
36 1
Li	      4.17998      2.06461      2.11871        -0.021615      0.053054      0.070231
Li	      4.18588      6.21246     10.34683         0.020706     -0.071001     -0.014017
Li	      6.27700      8.27583     10.34622        -0.006686      0.025240      0.013380
Li	      4.10411      6.17653      2.12701        -0.038619     -0.048186      0.081460
Li	      2.12785      4.22605      2.13310         0.071969      0.054772      0.013291
Li	      8.31060      6.24751     10.27664         0.109241     -0.006833     -0.082019
Li	      6.21383      8.33233      6.24469        -0.019523      0.031531     -0.019898
Li	      4.17661      6.21727      6.26541        -0.022523     -0.004705     -0.081205
Li	      8.24703      8.28462      8.39369        -0.061198     -0.036535      0.130504
Mn	      2.10697      8.25928      6.21387         0.000652     -0.045391      0.180659
V	      6.23063      4.17366      6.37205         0.230463     -0.050851      0.170979
Cr	      4.16046     10.37930      6.24620         0.040375     -0.111245      0.009991
Cr	      2.18710      6.16337      8.32533        -0.125021      0.018268     -0.149571
Cr	      8.29242      6.27113      6.28010         0.051426     -0.002096     -0.184316
Cr	      0.01246      4.13248      4.12758        -0.199020     -0.086044      0.106334
Co	      4.11967      4.21519      4.10300         0.237562     -0.407605      0.367562
Co	      6.20874      6.35230      8.39017        -0.032567      0.015108     -0.083464
Cu	      2.07968      2.12657      4.09500        -0.061853      0.056980     -0.115985
O	      2.09370      1.90576      1.88992         0.019217     -0.120846     -0.046942
O	      4.29545      4.15223      2.05553         0.072766      0.048196      0.614744
O	      4.07855      2.26808      4.22830        -0.050765      0.390405      0.083210
O	      6.22238      4.23159      4.22731        -0.766562     -0.072752     -0.034384
O	      6.19256      2.11095      6.20271        -0.117010     -0.038365     -0.022916
O	      8.29188      4.20197      6.24931         0.021214      0.168115     -0.075745
O	      2.04993      4.09590      4.11169         0.746956      0.038730     -0.020025
O	      4.21269      6.17221      4.14812         0.130163      0.071356     -0.007878
O	      4.28566      4.12442      6.18512        -0.228093      0.093277     -0.771212
O	      6.28320      6.12249      6.33358         0.011203     -0.032505      0.221406
O	      6.23498      4.12390      8.21008        -0.053139      0.040445     -0.121127
O	      8.24742      6.27298      8.23979        -0.039078     -0.008999     -0.048358
O	      1.99452      6.20797      6.34169        -0.089137     -0.074698      0.133214
O	      4.15847      8.39203      6.13558         0.040906      0.115871     -0.132187
O	      4.05766      6.24669      8.33789        -0.052455     -0.046301      0.059661
O	      6.21916      8.45221      8.36910         0.060531      0.084095      0.026376
O	      6.23614      6.15486     10.46555        -0.004430     -0.070038      0.025971
O	      8.42559      8.27179     10.53162         0.123944      0.029551     -0.297725
