# total energy = -227.64917889 eV
 
CRYSTAL
PRIMVEC
0.020053 6.255982 6.188143 
6.262968 0.018947 6.189264 
4.177707 4.173836 0.010304 
PRIMCOORD
36 1
Li	      4.21086     10.35376      6.22810        -0.049444     -0.059820     -0.016027
Li	      2.18425      8.30479      6.16831         0.001918     -0.009206     -0.016063
Li	      6.24947     10.30492      8.13662        -0.067251      0.019535     -0.018733
Li	      4.33773      8.34987      8.11413         0.005184      0.016017     -0.034149
Li	      4.18199      4.18225      4.18000        -0.008078      0.044523      0.005643
Li	      4.21340      2.15230      6.21086         0.015798      0.013177      0.028680
Li	      6.27513      8.41517      6.39990        -0.009853      0.018104      0.025579
Li	      8.22225      8.36593      8.18022        -0.031617     -0.020555      0.026568
Li	      6.26971      6.42449      8.23102         0.038240      0.019757      0.011620
Mn	      6.25379      2.05048      8.17838        -0.046144     -0.071385      0.036783
V	      2.19204      2.12215      4.16414         0.040906      0.031860     -0.094293
Cr	      6.26295      8.35262     10.26523         0.004827      0.020196      0.182561
Cr	      8.39267      4.17980      8.18952         0.048097      0.043074     -0.030026
Cr	      6.22552      4.19327      6.19236         0.106763     -0.114669      0.046572
Cr	      2.11592      6.24639      4.20458         0.003902      0.018928     -0.056102
Co	      4.23119      6.23336     10.14800         0.092746     -0.059166     -0.111471
Co	      4.15358      6.27585      6.25997        -0.029274      0.119108      0.051300
Ni	      4.16364      8.36764      4.22175        -0.066191      0.084454     -0.180214
O	      1.98525      2.12163      2.26733         0.052995     -0.010834      0.004647
O	      4.10873      4.31212      2.02848         0.008458     -0.033820      0.045064
O	      4.10737      2.05736      4.13392        -0.131568     -0.071556     -0.015170
O	      6.32525      4.23175      4.17006         0.027376      0.084649     -0.012236
O	      6.22124      2.21500      6.10689        -0.002405      0.056592     -0.068044
O	      8.26652      4.19091      6.16774        -0.037925      0.011390     -0.075893
O	      2.08190      4.14180      4.04807         0.120400     -0.081392      0.028001
O	      4.18691      6.30061      4.27214         0.046842     -0.125812     -0.048395
O	      4.26298      4.31988      6.20812        -0.070089      0.067378     -0.007256
O	      6.17366      6.25052      6.04704         0.058722      0.025739      0.064931
O	      6.35873      4.04248      8.21537        -0.010833      0.010312      0.002850
O	      8.44818      6.17927      8.34468        -0.056341     -0.013792     -0.025886
O	      2.23535      6.24654      6.14497         0.001226     -0.021601      0.098126
O	      4.17220      8.20744      6.19291         0.036014     -0.123700      0.186095
O	      4.21566      6.25419      8.32105         0.007907     -0.000281      0.098780
O	      6.25774      8.35607      8.36008         0.022160      0.016030     -0.098687
O	      6.32929      6.30751     10.35222        -0.026462      0.113662     -0.035082
O	      8.30611      8.30357     10.30491        -0.097004     -0.016897     -0.000076
