# total energy = -229.83256324 eV
 
CRYSTAL
PRIMVEC
-0.036491 6.338203 6.331194 
6.136549 0.003367 6.290690 
4.105464 4.213388 -0.012500 
PRIMCOORD
36 1
Li	      0.06790      6.23857      6.25295        -0.092911     -0.000845     -0.096151
Li	      6.21343     10.38370      8.36417         0.002642     -0.084568      0.032774
Li	      4.12070      8.36354      8.39586         0.043793      0.004958      0.066901
Li	      4.07623      6.29705     10.38492         0.049841     -0.046186      0.051628
Li	      6.12687      8.41191     10.39828         0.018858     -0.020613     -0.067925
Li	      2.05052      2.10680      4.11837         0.024040     -0.016047     -0.003376
Li	      1.99048      6.39253      4.35834        -0.072292      0.028322     -0.020978
Li	      6.04249      8.61950      6.49528         0.027549     -0.020172      0.051366
Li	      8.03084      8.58161      8.59392        -0.022131     -0.016349      0.082870
Mn	      4.06284      2.09140      6.25712         0.012659      0.018640     -0.004248
V	      4.05568      4.21146      4.18043         0.054879     -0.064213     -0.002817
Cr	      2.04803      8.39990      6.29510         0.023349      0.120837     -0.085619
Cr	      4.10431      6.32776      2.13233        -0.063823      0.102322     -0.113510
Cr	      6.11112      4.23080      6.27263        -0.039295      0.131552     -0.035680
Cr	      6.09480      6.42327      8.50028         0.034446     -0.247512     -0.418698
Co	      2.06616      4.19889      2.07536        -0.040097      0.033797      0.010980
Co	      4.08936      8.45244      4.24492        -0.230654      0.563114     -0.021556
Co	      4.05052      6.37961      6.38047        -0.035454     -0.038249      0.191862
O	      1.98790      2.26514      2.02568        -0.009463      0.003574      0.026025
O	      4.00808      4.31463      2.18311        -0.015365      0.003667     -0.054890
O	      4.05009      2.24238      4.34576        -0.007998      0.021774      0.023904
O	      5.94958      4.23274      4.25861        -0.045729      0.007933      0.071006
O	      6.11452      2.20832      6.38661         0.074847     -0.019707      0.071521
O	      8.12111      4.15152      6.39808         0.044225     -0.042096      0.011111
O	      2.11401      4.22412      4.03239        -0.243940     -0.019983      0.028220
O	      4.08278      6.25687      4.12875        -0.047238      0.172275      0.424735
O	      4.09335      4.27700      6.18499        -0.020013      0.286915      0.121924
O	      6.17837      6.22436      6.39563        -0.515384      0.012438     -0.131889
O	      6.23327      4.19925      8.34485         0.046553     -0.186904      0.211999
O	      8.19775      6.18493      8.24475         0.127519     -0.054683      0.010678
O	      2.00392      6.43692      6.37243         0.753115     -0.060999      0.037899
O	      4.03665      8.40827      6.26186         0.009746     -0.420870     -0.372918
O	      4.15614      6.32364      8.39364        -0.309345      0.028591     -0.767795
O	      6.13639      8.30895      8.42819        -0.044985      0.401934     -0.020892
O	      6.13417      6.27118     10.38811         0.030268     -0.483537      0.633975
O	      8.23265      8.45951     10.61001         0.477789     -0.099108      0.057563
