# total energy = -221.58908721 eV
 
CRYSTAL
PRIMVEC
-0.056884 6.319144 6.174000 
6.329452 -0.061197 6.178455 
4.178263 4.174672 0.000294 
PRIMCOORD
36 1
Li	      4.18250     10.31539      6.21615         0.001068     -0.054253     -0.096431
Li	      2.17526      8.34758      6.20277         0.043236      0.005848     -0.062464
Li	      1.99456      6.33963      8.03156        -0.024979     -0.021426      0.057168
Li	      4.15763      8.38186      8.05387         0.082095     -0.060187      0.097668
Li	      4.07136      4.23732      4.15658         0.126110     -0.058285      0.063412
Li	      8.34097      6.26333      6.16582        -0.010681      0.049859     -0.044227
Li	      4.29379      8.31286      4.33507        -0.009519      0.024506     -0.044482
Li	      1.99157      4.23003      6.09246        -0.004193     -0.072960      0.131936
Li	      4.11937      6.37973      6.20946         0.026637     -0.013366      0.105955
Mn	      4.21632      6.21855      2.06085         0.004950     -0.028756     -0.399491
V	      6.22371      2.04417      4.18410        -0.134389      0.053183     -0.041047
Cr	      8.38080      4.12997      4.16981         0.046210      0.086011      0.039175
Cr	      6.25567      4.19831      6.16794        -0.020723     -0.126836     -0.002665
Cr	      8.33538      8.34491      8.21485        -0.033504      0.117622     -0.113697
Cr	      6.27230      6.26173      8.21698        -0.118564      0.081798     -0.027679
Cu	      2.16161      6.16095      4.25505         0.127146      0.009342      0.096852
Ni	      2.12487      4.17712      2.03493        -0.039736      0.015772     -0.269829
Ni	      2.07578      2.16526      4.13900         0.223156     -0.221186      0.129703
O	      2.07639      6.26007      6.09268        -0.036825      0.049047     -0.041947
O	      4.12763      8.36003      6.19997         0.022604      0.015794     -0.024443
O	      1.92178      2.12999      2.07613        -0.105164     -0.144732     -0.010021
O	      4.14865      4.38500      1.99205         0.145958      0.116615      0.089531
O	      4.34750      2.00669      4.05547        -0.106776     -0.024204     -0.002857
O	      6.34814      4.09288      4.17055        -0.001488      0.090558     -0.106636
O	      6.26621      2.17531      6.16254        -0.004225     -0.068020      0.230566
O	      8.25646      4.17834      6.14219         0.121993      0.007678     -0.003746
O	      2.09456      4.15711      4.04760         0.001331      0.184776      0.093209
O	      4.23426      6.30772      3.92595        -0.270642     -0.057930      0.074490
O	      4.29981      4.14362      6.27160        -0.214838      0.047705     -0.032024
O	      6.30930      6.16874      6.22324        -0.025105      0.175483     -0.012111
O	      6.22989      4.15800      8.18928         0.006735     -0.081810      0.126577
O	      8.41064      6.28666      8.36734         0.004914      0.003323      0.000518
O	      4.28155      6.15869      8.32563         0.004234      0.018029      0.017019
O	      6.33612      8.24770      8.33106         0.021437      0.020321     -0.024504
O	      6.15341      6.38840     10.25040         0.097068     -0.098342      0.009222
O	      8.12134      8.43821     10.25764         0.054469     -0.040976     -0.002702
