# total energy = -228.75286432 eV
 
CRYSTAL
PRIMVEC
-0.022806 6.209924 6.263351 
6.362510 0.007924 6.231884 
4.270203 4.147030 -0.022787 
PRIMCOORD
36 1
Li	      4.19819      4.12663      0.04649        -0.011779     -0.034697     -0.007021
Li	      6.29116      4.24289      2.16949        -0.024127     -0.045318     -0.101600
Li	      4.11271      2.19599      2.12663        -0.052055     -0.022057      0.008134
Li	      8.35720      4.21138      4.19925         0.077240      0.010221     -0.064960
Li	      6.26062      2.21517      4.24876        -0.078996     -0.171151      0.031280
Li	      2.27887      4.00988      2.02666         0.000944      0.044717     -0.024991
Li	      2.22227      1.98368      4.04920        -0.007566      0.110633     -0.002384
Li	      6.45175      4.10012      6.06515        -0.041964     -0.035119      0.153429
Li	      2.07826      4.16519      6.20608         0.062870     -0.006339      0.043359
Mn	      6.36671      6.18730      8.31243        -0.060599     -0.265609      0.101401
V	      8.38883      8.34036      8.29336         0.076009      0.016525     -0.131150
Cr	      0.06569      2.00024      2.02194        -0.082931      0.012401     -0.052817
Cr	      8.49442      6.14072      6.16810         0.029160      0.119905      0.087905
Cr	      0.07491      4.13358      4.19572        -0.168195     -0.107543     -0.014878
Cr	      2.14046      6.19070      4.17869         0.012591      0.204773     -0.143804
Fe	      4.25839      6.28160      6.26637         0.069208     -0.212938      0.125750
Co	      4.29568      4.10319      4.13270         0.183496     -0.131466      0.021460
Cu	      8.48762      2.17520      6.24415         0.005387      0.007452     -0.035119
O	      2.00323      2.08883      1.97704        -0.033816     -0.062484      0.124892
O	      4.26113      4.19425      2.21830         0.017908      0.347902     -0.991240
O	      4.20593      2.20077      4.23592        -0.113188     -1.089281      0.287503
O	      6.15830      4.16427      4.14766        -0.011928      0.031754      0.027365
O	      6.19918      2.01917      6.31280        -0.152199      0.042130     -0.036837
O	      8.48303      4.16996      6.15771        -0.087058     -0.004000     -0.024484
O	      2.12527      4.21803      4.14028         0.051584      0.040305      0.099375
O	      4.19816      6.19453      4.15655         0.045067      0.707613     -0.062838
O	      4.21912      4.14515      6.32454        -0.060088      0.030955      0.288462
O	      6.37751      6.18625      6.39397        -0.009014      0.016991      0.133787
O	      6.19873      4.12089      8.40045        -0.002611      0.089357     -0.008603
O	      8.59140      6.28958      8.30354         0.092812     -0.076605      0.042805
O	      2.24949      6.33605      6.13672        -0.011958     -0.067587      0.021620
O	      4.38596      8.21588      6.15313         0.169787      0.142498     -0.016600
O	      4.23032      6.11868      8.27522        -0.009001      0.028500      0.094761
O	      6.59853      8.16482      8.38157        -0.045003      0.157629      0.024175
O	      6.50815      6.11364     10.26796         0.059200      0.149733     -0.124521
O	      8.63963      8.25113     10.30435         0.110817      0.020201      0.126383
