# total energy = -228.80335295 eV
 
CRYSTAL
PRIMVEC
0.016755 6.333242 6.180125 
6.131104 0.016495 6.179960 
4.111832 4.246026 -0.012544 
PRIMCOORD
36 1
Li	      6.11732      4.23887      2.08656         0.018150      0.018480     -0.004454
Li	      4.13535      2.19553      2.07941        -0.008228      0.013974      0.033905
Li	      6.15853      8.46967     10.20580         0.003279     -0.004081     -0.016581
Li	      6.17746      2.18932      8.20388        -0.032937      0.004317      0.012233
Li	      1.97457      4.15828      2.10162        -0.017728      0.000200      0.019916
Li	      6.11537      4.26419      6.23484        -0.007644      0.047597     -0.010417
Li	      6.14731      4.24332     10.19588        -0.030836     -0.009172     -0.016094
Li	      6.20851      8.46752      6.23445         0.064332     -0.000601     -0.023817
Li	      6.18098      6.34206      8.22786        -0.008858     -0.021095     -0.033743
Mn	      4.16750      4.21402      4.01101         0.013424     -0.017624     -0.010110
V	      4.20554      6.48378      6.25834         0.154292     -0.104274      0.092242
Cr	      4.13922      4.20771      0.08078        -0.011685      0.031722      0.008038
Cr	      2.00169      2.14063      0.08374        -0.147415      0.211822      0.019664
Cr	      4.08470      6.31510     10.23845         0.020391      0.017285     -0.070543
Cr	      8.18488      6.37480      6.20312         0.075194     -0.020285      0.020531
Fe	      8.13146      6.31418     10.18693         0.077374      0.065641      0.049358
Co	      8.20506      8.43090      8.22553         0.014526      0.034597     -0.023139
Ni	      2.03565      2.15112      4.00981        -0.046087      0.082257      0.015156
O	      2.01671      2.16591      2.01199         0.006938     -0.008263     -0.174925
O	      4.14758      4.18828      2.08311        -0.025497      0.020152      0.035317
O	      4.08289      2.00079      4.20128         0.107197     -0.043133     -0.011109
O	      6.16081      4.31896      4.09837        -0.015928     -0.118428     -0.002334
O	      6.08778      1.96101      6.20457         0.027687     -0.052719      0.009828
O	      8.24471      4.24833      6.08151         0.044648     -0.003083      0.002686
O	      2.18515      4.31781      4.09370         0.040559     -0.022369      0.018457
O	      4.05916      6.40183      4.33780        -0.081025     -0.019351     -0.034382
O	      4.13436      4.18363      6.04247        -0.014859     -0.001883     -0.010320
O	      6.13017      6.40361      6.12912         0.030620     -0.041254      0.047781
O	      5.93035      4.24112      8.22790        -0.124081     -0.010025      0.009787
O	      8.18128      6.33743      8.23634         0.009921      0.069543     -0.109417
O	      2.07982      6.46034      6.12095         0.028549      0.038930      0.037153
O	      4.06418      8.43359      6.22141        -0.189676     -0.022651      0.041632
O	      4.12845      6.37304      8.11675        -0.020580     -0.116505      0.062807
O	      6.38171      8.48035      8.21118         0.134430      0.001333     -0.010006
O	      6.14863      6.29534     10.41091        -0.080189     -0.019996      0.041499
O	      8.17876      8.50118     10.37201        -0.008259     -0.001057     -0.016597
