# total energy = -226.41185735 eV
 
CRYSTAL
PRIMVEC
0.041809 6.222483 6.240158 
6.409584 0.027595 6.253616 
4.272607 4.156945 0.018842 
PRIMCOORD
36 1
Li	      8.55488      8.24519     12.44946         0.002552     -0.001286     -0.016649
Li	      2.30147      6.20287      8.34709         0.075933     -0.034681     -0.059068
Li	      8.41989      4.18788      4.13404        -0.022189     -0.006835     -0.049714
Li	      6.40582      2.11640      8.24902        -0.044050     -0.002272     -0.017445
Li	      4.37599      4.14544      4.33702        -0.002287     -0.002015     -0.057416
Li	      4.29120      2.31881      6.18918         0.032501     -0.019402      0.010970
Li	      6.22151      4.16937      6.21818         0.064617     -0.011090      0.022805
Li	      2.35610      4.16856      6.31617        -0.006576      0.015900      0.000967
Li	      4.23723      4.26787      8.22586        -0.017869      0.005448      0.090395
Mn	      6.35960      2.19272      4.19112         0.013066     -0.029286     -0.034375
V	      8.55572      4.12400      8.18633         0.009921     -0.058128      0.080670
Cr	      6.48599      6.18832      4.29537         0.002396      0.020168     -0.062431
Cr	      4.26225      8.27637      4.19528        -0.011128      0.030984     -0.043602
Cr	      2.22608      6.18202      4.19736         0.027706     -0.021580      0.039246
Cr	      6.43294      6.26729      8.25386         0.114528     -0.009612      0.002362
Fe	      0.12472      6.22064      6.26936        -0.147194      0.034708     -0.016623
Cu	      4.29879      6.17289      6.31551        -0.002488      0.136743     -0.048999
Ni	      4.32515      8.29025      8.34601         0.027297      0.091018     -0.016685
O	      4.29420      4.26081      6.29712         0.004921     -0.100864      0.009139
O	      2.13306      2.24143      2.21167        -0.107024     -0.056799      0.005359
O	      4.05188      4.17132      2.03686        -0.025058      0.035870      0.098190
O	      4.21024      2.08491      4.13799        -0.060733     -0.005663      0.140295
O	      6.43010      4.19022      4.14852         0.003552      0.046617      0.004284
O	      6.37553      2.00399      6.09988        -0.031538      0.134637      0.010384
O	      8.57422      4.11922      6.44946        -0.033328     -0.031346     -0.196029
O	      2.04178      4.12356      4.07576        -0.004315     -0.020714      0.106395
O	      4.27736      6.29980      4.21291         0.026685     -0.067844     -0.028026
O	      6.57453      6.27533      6.27752         0.047356      0.008152      0.021730
O	      6.60945      4.22167      8.38613        -0.084823     -0.022423      0.033468
O	      8.51143      6.05130      8.43496        -0.000667      0.084772     -0.017161
O	      2.03177      6.21443      6.19912         0.087664     -0.049364      0.021678
O	      4.24160      8.36223      6.20974        -0.022743     -0.017358     -0.055705
O	      4.45871      6.28006      8.29986        -0.006370     -0.090655      0.064931
O	      6.40415      8.27052      8.48884         0.054132     -0.002371      0.006111
O	      6.55595      6.21424     10.38020        -0.016859     -0.025153     -0.026816
O	      8.65361      8.19156     10.37628         0.052411      0.041725     -0.022631
