# total energy = -91.16274416 eV
 
CRYSTAL
PRIMVEC
2.025102 4.012315 1.987182 
3.957058 -1.971645 -1.962655 
0.009437 4.003711 -3.966631 
PRIMCOORD
16 1
Li	      1.92518      1.93325      0.00847        -0.190375     -0.251479      0.251437
Li	      3.77871      1.98627     -1.90234         0.369904     -0.670113      0.011169
Li	      1.92852      3.85376     -1.89534        -0.336056      0.049753      0.097947
Li	      3.87799      3.83167     -3.77526         0.053086      0.547027     -0.377089
Mn	      0.01231      3.83656     -3.79489        -3.095512      0.746416     -1.522263
Mn	      3.84433      3.87452      0.00183         1.678725      1.391769      2.481707
Ni	      5.74644      3.89372     -1.89266         2.032094      0.070593      0.128656
Ni	      1.90957      1.92493     -3.78420        -0.765332     -0.864783     -1.577717
O	      3.82595      3.87507     -1.76390        -0.588949      0.226958     -2.086923
O	      3.83008      1.94367     -3.91277         1.338898     -0.291929     -0.274107
O	      3.95864      2.05113      0.02007         0.920403     -1.631330      0.769526
O	      3.68829     -0.07574     -1.88874         1.241756     -1.463508      0.534250
O	      2.04771      3.85449      0.09933        -1.779241     -0.069466      1.156820
O	      1.90875      1.78150     -1.89853        -0.966405     -0.172676      1.108655
O	      1.94852      5.93025     -1.89411        -0.726194      1.065465     -0.298010
O	      1.80937      3.85689     -3.89203         0.813198      1.317302     -0.404056
