# total energy = -226.36352958 eV
 
CRYSTAL
PRIMVEC
-0.014861 6.315726 6.165589 
6.331097 -0.009049 6.159838 
4.213551 4.199473 0.001328 
PRIMCOORD
36 1
Li	      0.12421      6.27254      6.14232         0.064419     -0.100686     -0.040806
Li	      2.16105      8.25934      6.13211         0.107813     -0.084167     -0.060220
Li	      4.14265      4.29192      4.26132        -0.042752      0.074764     -0.110876
Li	      6.14694      4.29341      6.17888         0.049492      0.008888      0.011124
Li	      2.14735      6.25134      4.24873        -0.013428     -0.006274      0.082863
Li	      2.20443      4.22780      6.10973        -0.113109      0.120881      0.028267
Li	      4.14052      6.24008      6.12238        -0.122607      0.093728      0.024751
Li	      4.20322      4.21734      8.08897        -0.036388      0.071025      0.143189
Li	      6.34561      6.28639      8.11058        -0.010079      0.013114      0.088051
Mn	      6.34464      2.07547      4.16733         0.243944     -0.138187     -0.219776
V	      8.45415      4.16883      4.24353         0.175819     -0.198550     -0.107044
Cr	      2.10782      6.29639      8.15390        -0.041005     -0.056138      0.005418
Cr	      4.22874      8.38957      8.11835         0.090240      0.023838     -0.072723
Cr	      8.43095      4.19998      8.20092         0.039484     -0.022151     -0.096004
Cr	      4.22880      8.39198      4.16912        -0.216598      0.243350      0.056243
Fe	     10.44606      6.30577      8.18696         0.179976     -0.043058     -0.046049
Cu	      6.30877      6.31448      4.20729        -0.165826     -0.060213     -0.204019
Cu	      4.14766      2.26696      6.18349         0.026585     -0.162818      0.188810
O	      4.19874      4.16319      6.16921        -0.024833     -0.085746     -0.004849
O	      6.43113      6.32956      6.10045         0.273356      0.075143      0.176719
O	      2.13076      2.09610      2.08570        -0.011374      0.045802     -0.083074
O	      4.20077      4.19075      2.05818        -0.017879     -0.012251      0.017119
O	      4.27409      1.97435      3.94905        -0.138955      0.107319      0.013178
O	      6.45012      4.13167      4.05572        -0.117340      0.167444      0.095046
O	      6.22586      2.11140      6.12271        -0.180466      0.053807      0.099167
O	      8.41147      4.28144      6.07283        -0.059004      0.181452      0.241456
O	      1.99892      4.19061      4.00685         0.126312     -0.032188      0.014756
O	      4.23515      6.39723      4.03298         0.088118     -0.133460      0.061777
O	      6.43329      4.11048      8.27367        -0.004053      0.033039     -0.063697
O	      8.52627      6.16153      8.32480        -0.171792      0.004246     -0.058709
O	      2.09172      6.31298      6.25980         0.016536     -0.008896     -0.142976
O	      4.19134      8.41333      6.15315        -0.000296     -0.032026     -0.000885
O	      4.10736      6.39458      8.33328         0.032002     -0.011571     -0.070987
O	      6.23331      8.49639      8.34998        -0.043322     -0.052316     -0.032329
O	      6.17082      6.27988     10.24263        -0.010861     -0.085792      0.037055
O	      8.45874      8.55064     10.26976         0.027867      0.008646      0.030032
