# total energy = -227.17694425 eV
 
CRYSTAL
PRIMVEC
-0.001202 6.325342 6.216918 
6.325915 -0.004103 6.219761 
4.225586 4.227427 -0.010938 
PRIMCOORD
36 1
Li	      4.08238      6.36748      2.23477         0.014754      0.008164     -0.095516
Li	      6.18672      6.45516      4.14210         0.009068      0.010567     -0.007751
Li	      4.08164      4.40808      4.15635        -0.020429     -0.003455     -0.010554
Li	      8.43773      6.35773      6.27535        -0.011948      0.024502     -0.023089
Li	      2.29796      6.23075      4.02271        -0.051820      0.015198      0.026158
Li	      2.14266      4.25711      6.09891        -0.013471      0.003630     -0.013643
Li	      4.17296      6.30907      6.03164        -0.035624      0.015063      0.099831
Li	      8.37527      8.23807      8.33697        -0.035368     -0.051447      0.011681
Li	      6.47863      6.38426      8.32917         0.005865      0.008453      0.022448
Mn	      2.13433      8.40942      6.17813         0.028020     -0.045450     -0.007190
V	      6.16883      4.39091      6.26081        -0.057649      0.068387      0.017791
Cr	      6.31106      4.21461      2.11217         0.034196     -0.014739     -0.015133
Cr	      4.24257      8.40958      8.30306         0.032113     -0.077901     -0.008580
Cr	      4.22754      0.02714      4.15999         0.037129      0.000158     -0.030452
Cr	      8.44881      4.32322      8.33288         0.010093     -0.054866      0.012526
Fe	      6.38181      6.35991     12.38986        -0.032927     -0.035172      0.037994
Ni	      6.33296      8.40642     10.34060         0.034654     -0.033204     -0.015556
Ni	      4.28075      8.32992      4.13091        -0.081048      0.154041     -0.118305
O	      4.22718      6.36933      4.13955        -0.001109     -0.157739     -0.010394
O	      2.20388      2.08162      1.95675         0.013064      0.029972     -0.015857
O	      4.21232      4.13684      2.00262         0.026706      0.034141      0.090413
O	      4.27014      2.00924      4.06298        -0.094182      0.025546      0.053250
O	      6.42141      4.17067      4.26098         0.034057      0.122164     -0.024979
O	      6.48652      2.11711      6.17691         0.048114      0.003888      0.121526
O	      8.44337      4.28871      6.21213         0.025314     -0.026759      0.003827
O	      2.07117      4.20811      4.05602         0.151142      0.047457      0.023749
O	      4.45573      4.16456      6.22689        -0.039317      0.047199     -0.017239
O	      6.30745      6.11084      6.20255        -0.019360      0.024146      0.041881
O	      6.43900      4.19055      8.08605         0.015204      0.014570     -0.054029
O	      8.42915      6.24121      8.26350         0.009554     -0.018239     -0.021203
O	      2.01253      6.26983      6.35322         0.102218     -0.002703      0.017336
O	      4.11659      8.51600      6.23881        -0.025330     -0.022195      0.130120
O	      4.07812      6.40078      8.38695        -0.012383     -0.018096     -0.019386
O	      6.25500      8.53977      8.30593        -0.011250     -0.026289     -0.134172
O	      6.23271      6.30856     10.43217        -0.037211     -0.065947     -0.100571
O	      8.46976      8.54399     10.44370        -0.050838     -0.003045      0.033066
