# total energy = -231.39347673 eV
 
CRYSTAL
PRIMVEC
-0.001162 6.316328 6.226359 
6.271646 0.005292 6.219487 
4.181699 4.207153 0.003080 
PRIMCOORD
36 1
Li	      8.25756      2.16347      6.14653         0.041997     -0.032457      0.035580
Li	      8.39390     10.42943     10.49889         0.001220      0.015011      0.008487
Li	      6.36388      8.39562     10.44955         0.028314     -0.026863     -0.038077
Li	     10.30953      6.31791      8.22366        -0.009219     -0.001141     -0.006228
Li	      8.37108      4.34024      8.27764         0.013135      0.009001      0.038382
Li	      4.10273      4.24890      4.19280        -0.044796     -0.001530      0.003496
Li	      8.43191      6.25832      6.32780        -0.009413     -0.003429      0.008100
Li	      8.32826      6.31736     10.31741         0.010713      0.014108     -0.001285
Li	      2.14102      4.24071      6.15706         0.033226      0.016820     -0.007613
Mn	      4.11503      6.29290      6.18186        -0.014406      0.044275     -0.016356
V	      4.20700      2.13909      2.11155        -0.061507      0.028642      0.003907
Cr	      6.21874      0.09251      6.16687        -0.007052     -0.021846      0.058921
Cr	      6.34182      4.13968      6.18874         0.011537     -0.068983     -0.002361
Cr	      6.25964      4.23450     10.37383         0.045825      0.009076     -0.010978
Cr	      8.35544      8.34574      8.31944        -0.052704     -0.001969      0.010160
Fe	      6.21506      4.22739      2.12227         0.040705     -0.017720      0.041896
Fe	      2.10490      2.17033      4.17996         0.097205     -0.108366     -0.088178
Ni	      6.35463      6.31098      8.32507        -0.092470      0.056045      0.003052
O	      2.22437      2.00772      2.14418        -0.082999      0.043460     -0.027401
O	      4.22708      4.11284      2.00906        -0.062070      0.060675     -0.062961
O	      4.16617      2.11029      3.89477         0.034561     -0.019350      0.154382
O	      6.27705      4.29778      4.14184         0.005122     -0.026256      0.086963
O	      6.27133      2.10184      6.20007        -0.023456      0.014906      0.021147
O	      8.36938      4.21500      6.24347        -0.020891     -0.000237     -0.001983
O	      2.01833      4.09817      4.16227        -0.036262      0.141918     -0.005275
O	      4.21064      6.38639      4.27681        -0.045454     -0.027958      0.092771
O	      4.29215      4.25050      6.26848        -0.036600     -0.020546      0.064308
O	      6.27096      6.18050      6.19615        -0.064653      0.032414     -0.024833
O	      6.18603      4.23142      8.30985        -0.013555     -0.088208     -0.043711
O	      8.33145      6.41159      8.32060         0.131245      0.040153     -0.024387
O	      2.02109      6.31910      6.34029         0.082968      0.001414     -0.096824
O	      4.17417      8.46679      6.29800         0.015787     -0.003177     -0.114273
O	      4.16718      6.35846      8.14644        -0.031540     -0.101520     -0.099190
O	      6.24323      8.44206      8.31426         0.099043      0.078685     -0.043990
O	      6.26469      6.22806     10.41038         0.021154     -0.024297      0.108603
O	      8.45880      8.43743     10.27645        -0.004712     -0.010750     -0.024252
