# total energy = -234.68363613 eV
 
CRYSTAL
PRIMVEC
0.003939 6.406498 6.319164 
6.154893 0.015931 6.307118 
4.120072 4.279481 -0.006044 
PRIMCOORD
36 1
Li	      4.17171      8.35963      8.44304        -0.006161     -0.058509      0.018001
Li	      4.11431      6.42970     10.37548         0.038799     -0.000801      0.012384
Li	      4.13502      4.27201      4.33375         0.009524      0.008579      0.042033
Li	      4.04983      2.26190      6.27533         0.020334      0.032665      0.001267
Li	      6.05372      4.38155      6.33577         0.015301      0.045795      0.006774
Li	      6.13848      4.28044     10.47491        -0.017263      0.000130     -0.001608
Li	      4.20370      6.29185      6.43743        -0.012670     -0.099538      0.005478
Li	      4.13501      4.40643      8.34227         0.002680     -0.038364     -0.010438
Li	      6.01661      6.34264      8.40447         0.053531     -0.062969      0.027955
Mn	      8.20849      4.33371      8.40709        -0.060410      0.025861     -0.058819
V	     10.25532     10.66100     12.59296        -0.037208      0.017866     -0.041695
Cr	      2.11584      8.54392      6.31119         0.012826      0.075242     -0.019576
Cr	      2.13120      6.38230      8.43496         0.054989     -0.000093      0.004128
Cr	      6.21263      6.37569      4.23162         0.045511     -0.008929      0.050463
Cr	      2.09841      6.42635      4.22655        -0.010478     -0.000629     -0.066945
Fe	      6.03755      2.17906      4.16137         0.135370      0.043897      0.020145
Fe	      6.08275      2.26749      8.41822         0.008760     -0.013125     -0.122225
Fe	      6.28558      8.42416      6.38128        -0.164600      0.020221      0.032362
O	      2.02988      2.03621      2.10111         0.017905     -0.023523     -0.000317
O	      4.07226      4.41867      1.97858        -0.014762      0.010993      0.028442
O	      4.11405      2.13270      4.21487        -0.164522      0.001546     -0.023799
O	      6.16657      4.30331      4.10622        -0.003548      0.032359     -0.036922
O	      6.21814      2.06983      6.29351         0.034713      0.019781      0.036646
O	      8.21341      4.13647      6.43445        -0.057561     -0.032961      0.068742
O	      2.07003      4.26780      4.15622        -0.005056      0.019400     -0.022990
O	      4.14272      6.42217      4.09015         0.025247      0.017859      0.044324
O	      4.01584      4.27224      6.32470         0.112602      0.031620     -0.025668
O	      6.15924      6.48947      6.19240        -0.017732     -0.066199     -0.052369
O	      6.28780      4.22478      8.39236         0.074810      0.064991      0.029738
O	      8.25840      6.47272      8.54517        -0.069390     -0.043407      0.022946
O	      2.08174      6.44380      6.30876         0.058832      0.021263      0.011317
O	      4.14277      8.68562      6.29376         0.024386     -0.015127      0.024029
O	      4.04919      6.40154      8.41570        -0.100971     -0.009079     -0.001884
O	      6.14277      8.66607      8.43867        -0.013370      0.038071      0.002018
O	      6.23367      6.53550     10.58989         0.001184     -0.046303     -0.008555
O	      8.15828      8.44535     10.65460         0.008398     -0.008586      0.004616
