# total energy = -222.35551136 eV
 
CRYSTAL
PRIMVEC
-0.008770 6.219782 6.319317 
6.248801 0.014696 6.295666 
4.163923 4.129087 0.011743 
PRIMCOORD
36 1
Li	      8.18647      2.09974      6.35960         0.019740     -0.024303      0.097532
Li	      6.24790      4.12648      2.18263         0.047298     -0.071112      0.103056
Li	      8.33215      4.17787      4.28439        -0.078410     -0.008087      0.020065
Li	      6.19781      2.09375      4.34906        -0.004935      0.052560     -0.028920
Li	      6.30232      2.01046      8.26527         0.006795      0.013952      0.045265
Li	      4.28584      2.01776      6.23126        -0.068469      0.051035      0.003087
Li	      6.33208      4.07944      6.18912        -0.022879     -0.086638      0.005440
Li	      6.21472      4.26174     10.55833        -0.030450     -0.061954     -0.047653
Li	      6.21945      6.28709      8.50585         0.026393     -0.014808     -0.010335
Mn	      8.28749      4.17088      8.36509        -0.076458      0.052678      0.131456
V	      4.28969      4.12424      8.50767         0.002183      0.056963     -0.253611
Cr	      4.18892      8.26414      8.45662         0.020436     -0.105448      0.140567
Cr	      6.23925      6.14266      4.20590         0.007627     -0.000283     -0.033004
Cr	      2.08453      4.15194      6.30586         0.152646     -0.138961      0.014607
Cr	      4.14765      6.22067      6.29306         0.146021     -0.014278      0.122396
Ni	      6.22980      0.05155      6.27365        -0.074368      0.859818     -0.482663
Ni	      8.27973      6.25542     10.52337         0.116105     -0.000260     -0.116220
Ni	      4.23401      4.11841      4.19367         0.055867     -0.015137      0.031259
O	      6.26356      1.93642      6.30312        -0.019039      0.117003      0.254007
O	      2.18309      2.09810      2.17996        -0.032220      0.061742     -0.113291
O	      4.13841      4.04033      2.04807        -0.006959     -0.143185      0.095999
O	      4.08953      2.08506      4.11776         0.045906     -0.166759     -0.017098
O	      6.22223      4.20158      4.22932         0.153221     -0.054832     -0.003325
O	      8.31216      4.13464      6.50972         0.221765     -0.018605     -0.100857
O	      2.10530      4.12768      4.12558        -0.129876     -0.007532      0.000245
O	      4.17323      6.17984      4.28656         0.012188      0.181991     -0.013134
O	      4.08626      4.21016      6.41210        -0.058254     -0.002327      0.029482
O	      6.14801      6.30254      6.20280         0.001893     -0.031081      0.065617
O	      6.07228      4.16793      8.38367         0.042053      0.026364      0.020430
O	      8.29317      6.39235      8.44102        -0.008502     -0.130720     -0.109831
O	      2.13804      6.15631      6.25212        -0.183628      0.091710      0.147914
O	      4.23035      8.27278      6.40738        -0.036165     -0.285916      0.007635
O	      4.17556      6.13660      8.32064        -0.004984      0.043816     -0.045508
O	      6.27353      8.27901      8.29487        -0.037656     -0.014805     -0.008077
O	      6.27680      6.24030     10.67813        -0.163642     -0.312828     -0.147085
O	      8.30794      8.33924     10.26863        -0.041245      0.100228      0.194552
