# total energy = -231.22421298 eV
 
CRYSTAL
PRIMVEC
0.021770 6.218965 6.183760 
6.390149 0.011488 6.194639 
4.279671 4.172342 -0.011647 
PRIMCOORD
36 1
Li	      4.29915      4.14585      0.07519        -0.052371      0.072622     -0.031726
Li	      6.28187      4.21309      2.00729        -0.014954      0.015156      0.039905
Li	      8.56673     10.36888     10.27813        -0.031239      0.013348      0.048832
Li	      4.17983      6.05669      2.20445        -0.039199     -0.010228     -0.067834
Li	      2.16916      4.19522      2.08594        -0.006312     -0.022465     -0.010619
Li	      4.25092      4.21027      4.06542         0.002147     -0.017478      0.000560
Li	      4.29112      8.24344      4.06876         0.072509      0.056163     -0.034015
Li	      2.24717      6.23511      4.04929        -0.046086     -0.036436     -0.036747
Li	      4.40396      4.15090      8.28246        -0.004593     -0.019399      0.028675
Mn	      6.39496      4.12128      6.25186         0.048115      0.007697     -0.079916
Mn	      2.16347      4.27694      6.14124         0.074642     -0.064125     -0.033195
V	      6.51800      8.29204     10.29078         0.054748      0.096429      0.014831
Cr	      4.21518      2.16628      2.04992         0.089924      0.038217      0.226511
Cr	      2.10464      2.08484      4.08929         0.170519     -0.088916     -0.022620
Cr	      8.59585      6.20762      6.21074         0.109117     -0.138074     -0.091800
Cr	      6.45263      6.24009      8.24408         0.027247      0.051472      0.068775
Co	      2.16103      8.28057      6.18585        -0.010766      0.063960      0.119078
Cu	      4.23414      6.25899      6.14872         0.019158     -0.014333      0.011261
O	      2.25003      2.03465      2.10796        -0.110851     -0.004070      0.110360
O	      4.25452      4.05659      2.08286         0.020271      0.106075     -0.126735
O	      4.25555      2.06117      4.12065         0.000226     -0.028460      0.005014
O	      6.39327      4.09032      4.23025        -0.002190      0.156372      0.047937
O	      6.33257      2.00187      6.07226        -0.052012     -0.057814      0.102047
O	      8.36921      4.17699      6.20412        -0.005504      0.107050     -0.015709
O	      2.13588      4.06844      4.24785        -0.001883      0.099280     -0.045957
O	      4.42374      6.23987      4.19749        -0.162077      0.018736      0.060225
O	      4.37264      4.07817      6.21442         0.132312      0.086823      0.036298
O	      6.58696      6.37737      6.16137         0.084270      0.048172      0.035468
O	      6.39201      4.28243      8.16322        -0.000747     -0.041741      0.065349
O	      8.46589      6.25328      8.17191        -0.011431      0.013111      0.052639
O	      2.12167      6.19246      6.15157        -0.008730     -0.066508      0.013168
O	      4.30313      8.33050      6.24449        -0.206290     -0.099750     -0.106464
O	      4.43243      6.35910      8.11501        -0.098696     -0.115102     -0.055672
O	      6.32967      8.32054      8.23503         0.070872     -0.042746     -0.064629
O	      6.37103      6.44692     10.20325        -0.077250     -0.211243     -0.091664
O	      8.37768      8.35558     10.34702        -0.032897      0.028205     -0.171632
