# total energy = -230.85963837 eV
 
CRYSTAL
PRIMVEC
-0.009792 6.212024 6.381157 
6.265555 -0.016982 6.388221 
4.173029 4.142111 -0.007427 
PRIMCOORD
36 1
Li	      8.37424      8.29224     12.70180         0.029244     -0.009799     -0.052290
Li	      4.25361      8.16084      8.63726         0.019099     -0.001153      0.089067
Li	      4.10824      0.09307      4.24585        -0.026658     -0.022579      0.042425
Li	      6.19350      8.30504     10.52891         0.042088     -0.020080     -0.033869
Li	      6.38736      6.11718      4.37704        -0.027007      0.016752      0.047287
Li	      6.24356      4.26050      6.30033        -0.041326      0.038876     -0.027459
Li	      6.29153      8.18865      6.51282        -0.023819     -0.023881      0.042673
Li	      8.24497      8.32075      8.47675         0.015662     -0.007793      0.043992
Li	      6.21768      6.29736      8.37551         0.021445      0.022263     -0.089895
Mn	      6.33122     10.26557      8.53484        -0.004345     -0.142364      0.022556
Mn	      8.33067      6.23369     10.65930        -0.037969      0.066880     -0.018070
V	      6.28834      2.11058      8.36757        -0.274162      0.013164     -0.092697
Cr	      4.16841     10.28257      6.39267         0.010358     -0.123273     -0.061888
Cr	      8.35024      4.10030      8.46325        -0.003995      0.211298      0.060931
Cr	      4.21389      4.06918      4.29641        -0.008159     -0.069589      0.104902
Cr	      4.15908      8.26395      4.27496        -0.039636      0.037973      0.062323
Co	      4.25995      6.19877      6.48062        -0.119813     -0.119264      0.236021
Ni	      8.22771      6.23242      6.32826         0.053851     -0.053587      0.030212
O	      1.93432      2.06760      2.16498        -0.000987      0.011257     -0.044991
O	      4.18212      4.19798      2.11045         0.026036      0.005158      0.027678
O	      4.16905      2.14023      4.29617         0.044519      0.050147     -0.111903
O	      6.18362      4.13277      4.08463        -0.014657     -0.002529     -0.086578
O	      6.22108      1.98738      6.55878         0.143079      0.003869      0.064646
O	      8.43975      4.11867      6.48187         0.030654     -0.069590      0.017753
O	      2.08708      4.25929      4.12123         0.010594      0.031756     -0.057051
O	      4.06598      6.20350      4.08192        -0.026184     -0.016926      0.184352
O	      4.18901      4.15829      6.23380        -0.034829      0.103630     -0.021573
O	      6.22333      6.20798      6.41256        -0.122407      0.087032     -0.068316
O	      6.36164      4.04287      8.59992         0.114842     -0.166917     -0.022367
O	      8.44554      6.11946      8.45195         0.052802     -0.074607      0.136904
O	      2.03113      6.21749      6.54573        -0.006752      0.007450      0.023636
O	      4.16183      8.30014      6.25133         0.063895      0.116772     -0.018734
O	      4.00015      6.21530      8.55395         0.071267     -0.016442     -0.485097
O	      6.24754      8.42561      8.51316         0.011271      0.167629      0.039249
O	      6.36443      6.12050     10.78425         0.039625     -0.014116      0.019368
O	      8.44498      8.12344     10.64627         0.012372     -0.037419     -0.003193
