# total energy = -234.32199381 eV
 
CRYSTAL
PRIMVEC
0.017966 6.136085 6.287987 
6.342674 0.015964 6.291178 
4.230564 4.094949 0.007965 
PRIMCOORD
36 1
Li	      8.50240      8.22543     12.56304         0.024886      0.046426     -0.029423
Li	      8.39553      4.10508      4.22334         0.029408     -0.068725      0.058861
Li	      6.33122      2.09138      4.16864         0.026696     -0.044560     -0.064231
Li	      4.26826      6.15455      2.21460         0.056117      0.026802      0.056351
Li	      2.16479      2.06037      4.20092        -0.007597      0.033007     -0.020685
Li	      4.25822      4.06066      4.23477        -0.026313      0.101685     -0.014482
Li	      4.17001      2.07266      6.16716        -0.011458     -0.007632     -0.046680
Li	     10.56677      8.16617     10.46767        -0.006255      0.020802     -0.027976
Li	      6.36770      8.13624      6.26912         0.003712     -0.021653      0.021261
Mn	      2.10708      4.07571      2.12692        -0.030269      0.017569     -0.034700
Mn	      2.16307      6.14151      4.19588         0.007655     -0.061767      0.255529
V	      6.35337      0.12616      6.26625         0.003286      0.075475     -0.026863
Cr	      6.32653      4.13555      2.21292        -0.111069     -0.155297     -0.022696
Cr	      6.33538      4.07969      6.20140         0.101807     -0.022592      0.191326
Cr	      4.22583      6.19263      6.26966        -0.059716     -0.126301     -0.331294
Cr	      8.47328      8.14447      8.39489         0.022520     -0.049339     -0.144829
Co	      4.22969      2.07661      2.17730         0.087339      0.099298      1.382526
Co	      6.33144      6.17456      8.42393         0.241953     -0.284930     -0.028178
O	      2.17413      2.07624      2.13820        -0.183557      0.059984     -0.070170
O	      4.32463      4.10896      2.02730        -0.089261      0.242771     -0.147095
O	      4.26869      2.03785      3.98610         0.019284     -0.049795     -0.098337
O	      6.37388      4.09196      4.22273         0.013114      0.030448     -0.075863
O	      6.34105      1.94074      6.27089        -0.016377     -0.061784     -0.022684
O	      8.51074      4.09010      6.41003        -0.118060      0.031196     -0.049563
O	      2.11313      4.18166      4.03685         0.062630     -0.014703     -0.079619
O	      4.10381      6.16937      4.31847        -0.039178     -0.049831      0.086671
O	      4.32515      4.16817      6.33298        -0.023942     -0.034139      0.040784
O	      6.21993      6.07591      6.28979         0.023498      0.102130      0.183004
O	      6.27567      4.08986      8.24139        -0.101092     -0.301159     -0.037599
O	      8.42459      6.12287      8.30411        -0.355189      0.008464      0.056923
O	      2.08835      6.16208      6.42517         0.165037      0.020822      0.046831
O	      4.25944      8.27429      6.50671         0.059599     -0.049530     -0.637539
O	      4.17122      6.10130      8.33992         0.274039     -0.053633     -0.134965
O	      6.42421      8.23338      8.38018         0.144705      0.433145      0.016848
O	      6.48113      6.08909     10.61913        -0.152324      0.098875     -0.212357
O	      8.50126      8.08294     10.37589        -0.035626      0.008473     -0.039088
