# total energy = -92.17336148 eV
 
CRYSTAL
PRIMVEC
2.046196 4.054110 2.007882 
3.998277 -1.992183 -1.983099 
0.009536 4.045416 -4.007950 
PRIMCOORD
16 1
Li	      1.96549      1.97373      0.00865        -0.116945     -0.159026      0.161667
Li	      3.85784      2.02787     -1.94218         0.238375     -0.476052      0.022870
Li	      1.96891      3.93447     -1.93504        -0.222065      0.032469      0.066367
Li	      3.95920      3.91191     -3.85432         0.029538      0.370639     -0.259632
Mn	      0.01257      3.91691     -3.87436        -2.233537      0.591310     -1.168634
Mn	      3.92483      3.95566      0.00187         1.154157      0.949659      1.713089
Ni	      5.86678      3.97526     -1.93230         1.431771      0.042514      0.117992
Ni	      1.94956      1.96525     -3.86345        -0.500640     -0.550658     -1.090844
O	      3.90608      3.95622     -1.80084        -0.403770      0.104502     -1.377450
O	      3.91029      1.98438     -3.99471         0.932230     -0.169434     -0.208498
O	      4.04154      2.09408      0.02049         0.706197     -1.093150      0.517859
O	      3.76553     -0.07733     -1.92829         0.878119     -1.126582      0.403674
O	      2.09059      3.93520      0.10140        -1.146474     -0.101773      0.857410
O	      1.94872      1.81881     -1.93829        -0.653113     -0.142940      0.766393
O	      1.98933      6.05444     -1.93378        -0.557845      0.821769     -0.226895
O	      1.84726      3.93766     -3.97353         0.464001      0.906752     -0.295368
