# total energy = -227.60177510 eV
 
CRYSTAL
PRIMVEC
0.011414 6.333322 6.126223 
6.342807 0.020597 6.116757 
4.242739 4.230315 -0.000464 
PRIMCOORD
36 1
Li	      6.30634      4.20182      2.10151        -0.061118      0.052770     -0.011319
Li	      4.27954      2.16368      2.08470        -0.035199      0.022018      0.004200
Li	      6.37119      2.19799      8.12037         0.010750      0.051130     -0.036786
Li	      8.40008      4.21919      8.11805        -0.025146     -0.022703     -0.042880
Li	      4.27784      4.18919      3.99255        -0.036184      0.012523     -0.065503
Li	      4.22214      2.14911      6.12658        -0.009923      0.035843     -0.014495
Li	      6.34795      4.24328      6.25055         0.026317      0.001797     -0.030490
Li	      4.31861      4.27037      8.11876         0.094824     -0.006578     -0.029493
Li	      6.32876      6.26621      8.11920         0.011827     -0.099446     -0.070869
Mn	      6.40971      8.42697      6.25910         0.118989     -0.027590      0.076917
Mn	      4.28253      6.29001      6.23252         0.003193     -0.041050      0.089979
V	      8.47001      6.34549     10.06609         0.078542     -0.119202     -0.321119
Cr	      4.22018      4.26374      0.09418        -0.008742      0.024262      0.011752
Cr	      2.09365      2.13897      0.07711         0.000607      0.003730      0.130278
Cr	      4.23263      6.35548     10.12423        -0.092193      0.086339      0.010298
Cr	      2.14474      2.08915      4.02226        -0.108501      0.100866     -0.076469
Cu	      6.28003      2.21216      3.98753        -0.008520      0.051923     -0.066597
Ni	      6.36519      4.23109     10.09670         0.066996     -0.060887      0.025432
O	      6.37614      4.22053      8.15700        -0.031800      0.028825      0.005639
O	      2.07371      2.14339      2.04252         0.021467     -0.034336     -0.028009
O	      4.22023      4.26883      1.95772         0.012861      0.006119      0.038823
O	      4.12101      1.99690      4.07804         0.093229      0.001952      0.033914
O	      6.48787      4.32894      4.08392         0.022071     -0.076838      0.046612
O	      6.43422      2.04334      5.98665         0.038389      0.005336      0.150525
O	      8.59308      4.13707      6.01348        -0.070249      0.042632     -0.016216
O	      2.09437      4.28319      4.23140         0.043788      0.008485     -0.056282
O	      4.19309      6.35864      4.24325         0.011301     -0.052376      0.020748
O	      4.07975      4.34139      6.14585        -0.113633     -0.106098     -0.002223
O	      6.33741      6.39132      6.01556         0.036164     -0.020815      0.074640
O	      8.49354      6.34872      8.34634         0.008424      0.002008      0.207152
O	      2.05116      6.42544      6.04129        -0.004581      0.026974     -0.053124
O	      4.24356      8.46168      6.11959         0.012415      0.063070      0.037064
O	      4.25687      6.33655      8.12056        -0.001866     -0.018596     -0.019187
O	      6.35743      8.43668      8.13625        -0.054479     -0.020309     -0.004855
O	      6.40373      6.32331     10.24357         0.052419      0.104064      0.003356
O	      8.53284      8.42488     10.27530        -0.102441     -0.025842     -0.021412
