# total energy = -235.74980934 eV
 
CRYSTAL
PRIMVEC
-0.005370 6.299071 6.263261 
6.244055 -0.010711 6.268526 
4.147483 4.187729 0.008083 
PRIMCOORD
36 1
Li	      4.17908      4.19806      0.09026         0.028678      0.021553     -0.005051
Li	      6.06176      4.21396      2.17084        -0.027554      0.001712     -0.011436
Li	      4.11585      2.26577      2.13279        -0.010243      0.026823     -0.010401
Li	      4.18944      6.17410      2.20755        -0.013675      0.010767      0.050950
Li	      2.06500      2.16265      4.04783        -0.020214      0.031630      0.006671
Li	      4.12920      4.16260      4.01412        -0.040342      0.015538      0.073876
Li	      6.33212      4.22914     10.39051        -0.052156      0.000894      0.036685
Li	      8.21003      6.20386     10.44007        -0.042538      0.007375      0.064801
Li	      6.26881      6.29104      8.42700        -0.001273      0.014046     -0.037062
Mn	      2.01002      4.24773      6.21803        -0.017274      0.025721      0.055322
Mn	      8.33939      8.29134      8.43999        -0.010869      0.007464     -0.046303
V	      4.12877      6.32348      6.16513        -0.010483     -0.009434      0.132518
Cr	      2.07226      2.06805      0.07558         0.021268     -0.052924      0.011885
Cr	      2.11763      4.18791      2.18851        -0.050173      0.023254      0.023275
Cr	      4.16868      2.08092      6.24269         0.009909      0.040389     -0.025724
Cr	      6.21572      4.20295      6.24505        -0.044771      0.004455     -0.044086
Fe	      4.22576      6.33203     10.26804        -0.065438     -0.032086      0.046947
Co	      6.25083      8.38526     10.43054         0.024921     -0.033205     -0.033957
O	      2.04541      2.20237      2.03065         0.005898     -0.038928      0.038472
O	      4.05153      4.21341      2.07028         0.011809      0.029532      0.024096
O	      4.28983      2.01571      4.22263         0.055928      0.089946      0.011377
O	      6.35008      4.07758      4.23316        -0.043961     -0.079350     -0.024650
O	      6.21740      2.17730      6.13167         0.021333     -0.008726     -0.058173
O	      8.22741      4.21119      6.32373         0.041704     -0.018547     -0.086426
O	      2.03646      4.22002      4.13168         0.015003     -0.033638     -0.056191
O	      4.17621      6.25178      4.43012        -0.032952      0.037556     -0.158120
O	      4.19929      4.13795      6.22186         0.117393     -0.030996     -0.030433
O	      6.26154      6.22507      6.24580         0.044301     -0.100261     -0.028015
O	      6.17220      4.15138      8.27179         0.021136     -0.004832      0.007390
O	      8.32349      6.29140      8.24915        -0.002402      0.006105      0.000502
O	      2.16702      6.37573      6.30920        -0.001712      0.084368      0.004366
O	      4.06858      8.25664      6.32475        -0.090835      0.007094     -0.002300
O	      4.20509      6.12182      8.26791         0.016684     -0.055064     -0.030334
O	      6.38703      8.35448      8.47217         0.032520     -0.011638      0.090362
O	      6.15277      6.42420     10.48591         0.142910      0.079149      0.005596
O	      8.22689      8.45849     10.56485        -0.032527     -0.055741      0.003571
