# total energy = -233.03988468 eV
 
CRYSTAL
PRIMVEC
0.018358 6.159565 6.311872 
6.328881 0.006946 6.323495 
4.224959 4.119812 -0.001250 
PRIMCOORD
36 1
Li	      8.36235      2.09444      6.36754        -0.047462      0.048621      0.035420
Li	      6.30062      2.15009      4.27578        -0.022783      0.033700      0.025298
Li	      6.33581      2.09080      8.30956         0.031954      0.028160     -0.006432
Li	      8.40060      4.14396      8.37575        -0.031117      0.005632     -0.023350
Li	      4.25501      4.05626      4.34648         0.008714     -0.045758      0.107879
Li	      4.32804      2.16374      6.33130         0.049792      0.026316     -0.014705
Li	      6.22094      4.03394      6.36126        -0.087669     -0.014340      0.006455
Li	      2.22337      4.09498      6.33138         0.047182     -0.077600     -0.034022
Li	      4.26059      4.04350      8.33005         0.048590     -0.024179     -0.021462
Mn	      6.30738      0.07787      6.35834        -0.099754      0.253337     -0.041914
Mn	      6.42041      6.17406      8.32840         0.023645      0.024814     -0.049140
V	      2.13615      2.07006      4.22441        -0.137120      0.075605     -0.053560
Cr	      8.41378      4.09546      4.26093         0.142805     -0.068733     -0.058582
Cr	      0.01531      4.09409      4.19392        -0.120986      0.137621      0.013217
Cr	      8.45694      6.17530     10.51822        -0.016892     -0.014432     -0.031062
Cr	      4.21059      6.08064      6.32423         0.073614     -0.109204     -0.028763
Fe	      4.21461      2.11516      2.10358         0.005890     -0.052171     -0.014346
Ni	      6.35082     10.23848      8.40766         0.033905     -0.002428      0.022750
O	      2.19559      2.01858      2.21027         0.099231      0.090401     -0.177493
O	      4.26976      4.08661      1.96111        -0.082791      0.085987     -0.217794
O	      4.17957      1.99521      4.13723         0.129966     -0.073545     -0.013926
O	      6.44867      4.17034      4.16519         0.111197     -0.128971      0.112799
O	      6.33911      1.92386      6.33339         0.029696     -0.234462      0.010243
O	      8.60958      4.14235      6.21460         0.230852      0.030824      0.045539
O	      2.02936      4.11255      4.20452        -0.132969      0.140346     -0.015989
O	      4.15784      6.21467      4.28587        -0.065766      0.001489      0.045464
O	      4.22117      4.17396      6.30606        -0.031871      0.091448      0.071641
O	      6.20451      6.15646      6.19524        -0.136967     -0.070603      0.303136
O	      6.36578      4.24723      8.52288        -0.026756      0.025716      0.016830
O	      8.33557      6.19171      8.55540        -0.053504     -0.018145     -0.004152
O	      2.08800      6.16254      6.26856        -0.090535     -0.016481     -0.099681
O	      4.22336      8.25592      6.30450        -0.042283      0.071351      0.001502
O	      4.29781      6.20027      8.40715         0.125411     -0.029537     -0.014333
O	      6.24935      8.15176      8.43746        -0.013584     -0.140900     -0.051168
O	      6.36855      6.12736     10.65672        -0.011445     -0.034688      0.132510
O	      8.56131      8.22483     10.52555         0.059811     -0.015191      0.021191
