# total energy = -227.46643327 eV
 
CRYSTAL
PRIMVEC
-0.010591 6.222461 6.382968 
6.237124 0.004694 6.367525 
4.161913 4.142290 -0.000767 
PRIMCOORD
36 1
Li	      6.22101      8.31834     10.59289        -0.130887      0.080207     -0.090505
Li	     10.28676      6.30863      8.66645         0.035119     -0.052162     -0.143813
Li	      6.18327      6.20901      4.34473         0.191152     -0.073264      0.118751
Li	      4.14868      4.22001      4.37669         0.070157     -0.197989      0.056135
Li	      4.05922      2.19446      6.37524        -0.077823      0.014454     -0.035721
Li	      4.15174      8.16739      4.15609         0.015763      0.121573     -0.010049
Li	      4.26062      6.09921      6.23459         0.123960     -0.022532      0.156767
Li	      4.24536      4.09760      8.43937        -0.022816      0.076729     -0.172397
Li	      6.26926      6.12956      8.44005        -0.109527      0.029956     -0.246337
Mn	      6.22642      4.16060      2.19973         0.151065     -0.157125      0.084933
Mn	      8.23716      4.19795      8.60124         0.038829     -0.340310     -0.284516
V	      6.19093      0.12026      6.30721         0.020812     -0.079197      0.452943
Cr	      2.11537      8.26010      6.32352         0.050844      0.117214      0.442531
Cr	      4.19002      2.06816      2.17252         0.141077     -0.079470     -0.016819
Cr	      4.17534      6.22319     10.57519        -0.265680      0.304871     -0.231347
Cr	      2.16097      4.06086      6.32267         0.010746      0.219610      0.777340
Ni	      6.12989      4.23944      6.37025        -0.025981      0.062610     -0.098635
Ni	      8.36201      6.23752     10.55520         0.663872     -0.171758     -0.056988
O	      4.06525      6.22254      4.27323        -0.612532      0.056014     -0.030848
O	      2.15683      2.04064      2.01224        -0.138218      0.007612     -0.033582
O	      4.03040      4.09123      2.01889        -0.116460      0.151660     -0.071164
O	      4.19783      1.96880      4.12091         0.035210      0.062659      0.064848
O	      6.33703      4.13949      4.18531        -0.069573     -0.010821      0.022355
O	      6.32327      1.93651      6.38662         0.062513      0.071098     -0.035355
O	      8.36196      4.06387      6.25050         0.161107     -0.047535     -0.078147
O	      2.07304      4.20030      4.37206        -0.128962      0.329626     -0.486181
O	      4.11139      4.12751      6.41530         0.019975      0.065743     -0.111646
O	      6.21959      6.28917      6.36106        -0.022664     -0.240698     -0.104479
O	      6.35627      4.13094      8.38136         0.015355     -0.089994      0.295108
O	      8.28541      6.09850      8.55399        -0.006619      0.231186      0.350133
O	      1.96763      6.23668      6.46091        -0.016587      0.095332     -0.251929
O	      4.14753      8.45191      6.48231        -0.100483      0.036414     -0.091770
O	      4.17684      6.30074      8.60180         0.059642     -0.058633      0.018420
O	      6.16066      8.45367      8.40416         0.082329      0.077271      0.160433
O	      6.23762      6.20745     10.79652        -0.072775     -0.013789     -0.141064
O	      8.32565      8.31134     10.73217        -0.031940     -0.576562     -0.177407
