# total energy = -237.55677145 eV
 
CRYSTAL
PRIMVEC
0.011134 6.456690 6.195443 
6.244893 -0.021256 6.228430 
4.155230 4.318818 -0.006168 
PRIMCOORD
36 1
Li	      6.34890     10.60672      8.27638         0.003209     -0.058638     -0.017060
Li	      4.18196      6.41647     10.22639         0.039709      0.074239     -0.051599
Li	      6.27154      8.50965     10.19771        -0.091438     -0.073010     -0.002606
Li	      8.29413      4.29144      8.31380        -0.011109      0.079557      0.007802
Li	      6.20828      4.31661     10.23042         0.083051      0.059541     -0.018225
Li	      6.23897      8.55686      6.32562        -0.060692     -0.000797      0.054711
Li	      4.19877      6.44103      6.37049        -0.009967     -0.012129      0.059174
Li	      4.08753      4.50771      8.28967         0.025115     -0.030995     -0.046420
Li	      6.09185      6.56093      8.25367         0.014475      0.009562      0.039552
Mn	      4.18704      4.32150      4.10745         0.011897     -0.039743      0.037826
Mn	      8.29854      6.45585      6.24308        -0.059703      0.050781     -0.008785
Mn	      6.24295      4.36504      6.23327        -0.039789      0.004721      0.014068
V	      8.29187      6.50338     10.32507        -0.244735     -0.034849      0.030072
Cr	      4.19030     10.70467      6.23713        -0.024677     -0.051239     -0.085747
Cr	      2.13741      8.57839      6.21320         0.064378     -0.015595     -0.079786
Cr	      6.25720      2.17555      8.29079        -0.021809      0.009035     -0.089699
Cr	      2.06935      2.22203      4.14446         0.067491      0.039045      0.064313
Co	      4.22000      8.41797      8.29929         0.173376     -0.032989     -0.028827
O	      2.08506      2.22754      2.07823        -0.045693      0.017515     -0.018003
O	      4.18821      4.48494      2.09121        -0.032706      0.019901     -0.008936
O	      4.08418      2.11831      4.08407        -0.027142      0.027025     -0.004433
O	      6.13530      4.49931      4.24519         0.006028      0.020811      0.005200
O	      6.30921      1.99209      6.25749         0.024580     -0.031243      0.079187
O	      8.32127      4.15715      6.15541         0.009199     -0.048352      0.018516
O	      2.23443      4.36378      4.14943         0.060494      0.009331     -0.019363
O	      4.15982      6.55938      4.04972         0.044191     -0.009407     -0.075794
O	      4.27435      4.26867      6.09260         0.059970      0.039098     -0.024672
O	      6.24596      6.49456      6.10905        -0.028756      0.015827     -0.047567
O	      6.23886      4.16701      8.12755         0.009911     -0.026386     -0.080606
O	      8.39535      6.43658      8.37843         0.119039     -0.005407      0.127113
O	      2.03327      6.54983      6.12393        -0.005787     -0.017706     -0.047750
O	      4.11308      8.71631      6.32942        -0.092428     -0.005092      0.028195
O	      4.13124      6.46623      8.30621        -0.019752      0.062201      0.010707
O	      6.08294      8.63772      8.30381        -0.138854     -0.045160      0.005673
O	      6.41287      6.31227     10.44771         0.131439      0.027973      0.129392
O	      8.34132      8.36245     10.42918         0.007487     -0.027428      0.044375
