# total energy = -235.71272720 eV
 
CRYSTAL
PRIMVEC
-0.003474 6.234939 6.353561 
6.308094 -0.004983 6.354978 
4.186506 4.138766 0.015676 
PRIMCOORD
36 1
Li	     10.43821      4.15481      6.42304        -0.027329      0.004980     -0.041236
Li	      8.43167      8.29116     12.64987         0.031048     -0.027941     -0.069116
Li	      8.42029     10.29082     10.64670         0.044453     -0.059137      0.010614
Li	      6.42416      8.25038     10.58897         0.038618     -0.038966      0.013679
Li	      4.22700      6.11031      2.09786         0.048063      0.013270     -0.011621
Li	      2.15870      4.14332      2.07412        -0.043418     -0.023543     -0.035821
Li	      4.19793      4.15981      4.17034         0.022486      0.035900     -0.001169
Li	     10.40882      8.32377     10.61706        -0.045723      0.002243     -0.011400
Li	      8.40276      8.28115      8.58945         0.031319     -0.007156      0.040263
Mn	      2.05560      2.13549      4.17246        -0.045961      0.025292     -0.047209
Mn	      8.42006      6.24986     10.51562        -0.001473      0.105072      0.053034
Mn	      6.28614      6.20895      8.55965        -0.004156     -0.073306      0.278589
V	      6.38586      3.99141      6.40751         0.077216     -0.080186      0.029213
Cr	      4.16122      2.13480      2.15552        -0.031386      0.055179     -0.014240
Cr	      4.23086      2.05300      6.34119         0.028358     -0.094615     -0.000646
Cr	      2.10416      4.21830      6.36402        -0.103067      0.106276     -0.021507
Cr	      4.19587      6.22484      6.36588        -0.101471      0.137354     -0.018243
Cu	      6.24007      4.16752      2.17662        -0.018550      0.034083      0.075079
O	      2.15841      2.01002      2.11028         0.118766      0.112290      0.005168
O	      4.25807      4.09014      2.11663        -0.113881     -0.052698      0.019715
O	      4.00883      2.10491      4.25979         0.082135     -0.007166      0.032209
O	      6.24542      4.30215      4.55433         0.025121     -0.026101      0.125450
O	      6.19462      2.11638      6.30084        -0.117447      0.029196      0.044687
O	      8.30936      4.19927      6.35095        -0.083547      0.087328      0.011534
O	      2.08802      4.19330      4.34655         0.002041     -0.051858      0.066388
O	      4.30868      6.25365      4.35504        -0.048049      0.005684      0.026325
O	      4.16168      4.14723      6.39870         0.011890     -0.007652     -0.002276
O	      6.29202      6.28063      6.52905         0.014538      0.016792     -0.070944
O	      6.26475      4.14436      8.23542         0.030009     -0.015819     -0.166032
O	      8.31166      6.18965      8.42061        -0.114568     -0.008463     -0.047785
O	      2.22538      6.17777      6.20295         0.095098     -0.082743     -0.036932
O	      4.28141      8.23451      6.47993         0.130258     -0.046423      0.044516
O	      4.20866      6.29476      8.40762         0.137464      0.069868     -0.054560
O	      6.20746      8.39358      8.42524        -0.043774     -0.154556     -0.055350
O	      6.29715      6.20172     10.42049        -0.000219      0.010949     -0.120252
O	      8.41717      8.11641     10.58400        -0.024862      0.006572     -0.050124
