# total energy = -235.93677785 eV
 
CRYSTAL
PRIMVEC
0.025099 6.163081 6.308314 
6.317010 0.030704 6.302380 
4.226135 4.119409 0.005698 
PRIMCOORD
36 1
Li	      4.25442     10.24857      6.29227        -0.010627     -0.024853     -0.013549
Li	      2.25535      6.15663      8.38682         0.083400      0.031752     -0.006330
Li	      4.26520      6.17556     10.46206         0.070622     -0.002896      0.003404
Li	      6.22742      6.08717      4.30340        -0.127167     -0.045413     -0.022630
Li	      4.22767      4.16852      4.24257        -0.053179     -0.008838      0.008016
Li	      6.31915      4.22206      6.28394         0.007112      0.047402      0.022151
Li	      0.03631      4.11026      4.19226        -0.021244      0.010229     -0.012825
Li	      4.27112      6.15106      6.33366         0.018927      0.007481      0.019322
Li	      6.27188      6.19440      8.38960         0.054833      0.007764     -0.009414
Mn	      4.23161      8.15627      8.46035        -0.078895      0.017275     -0.090338
Mn	      8.35012      4.12234      8.45533        -0.030518     -0.006371      0.030155
Mn	      2.15049      6.18678      4.22679        -0.079511     -0.023726     -0.014323
V	      6.33605      2.18030      4.17025         0.066875     -0.315787     -0.128600
Cr	      2.15873      8.21087      6.31326         0.165786     -0.018348      0.078308
Cr	      4.22159      6.12110      2.10298        -0.013452     -0.029798      0.074889
Cr	      4.19361      2.05991      6.23543        -0.208244     -0.032716      0.109112
Cr	      2.11713      4.13677      6.31777        -0.086112     -0.026014     -0.022980
Ni	      4.28960      4.24080      8.35984         0.070194      0.009895      0.042605
O	      1.99768      1.99730      2.02650        -0.052547     -0.011211      0.011741
O	      3.96988      4.04025      2.16505         0.028534      0.026007      0.003442
O	      4.36166      2.02461      4.18898         0.115176      0.026013      0.008914
O	      6.34690      3.95429      4.21415         0.012731      0.244768     -0.001445
O	      6.35251      2.06895      6.26677        -0.043201      0.014114      0.009914
O	      8.42510      4.11965      6.38826        -0.003222      0.015546     -0.077242
O	      2.04207      4.22401      4.27229         0.000449     -0.005947     -0.027321
O	      4.09599      6.15855      4.06437         0.018330      0.003392      0.016554
O	      4.12011      4.06648      6.31878         0.071558     -0.012033     -0.136224
O	      6.45293      6.27810      6.25550         0.025526     -0.050698     -0.007947
O	      6.39670      4.05036      8.40526         0.108926     -0.032092     -0.028566
O	      8.53181      6.24927      8.26748         0.051457     -0.098756     -0.055832
O	      2.13142      6.19506      6.33865        -0.004579     -0.012595      0.049116
O	      4.21767      8.21267      6.46713         0.016623      0.038285      0.001358
O	      4.29348      6.25357      8.44830        -0.005655      0.161677      0.008911
O	      6.42817      8.28838      8.42976        -0.115199      0.024625      0.016462
O	      6.52462      6.38265     10.48461        -0.019039      0.043170      0.023038
O	      8.43920      8.22960     10.56797        -0.034666      0.028697      0.118157
