# total energy = -92.55418137 eV
 
CRYSTAL
PRIMVEC
2.056744 4.075008 2.018232 
4.018887 -2.002452 -1.993321 
0.009585 4.066269 -4.028610 
PRIMCOORD
16 1
Li	      1.98581      1.99413      0.00874        -0.089146     -0.121338      0.125213
Li	      3.89772      2.04883     -1.96226         0.185289     -0.382644      0.023731
Li	      1.98926      3.97513     -1.95503        -0.175262      0.026810      0.053122
Li	      4.00012      3.95234     -3.89416         0.019045      0.297065     -0.214153
Mn	      0.01270      3.95739     -3.91441        -1.830592      0.504709     -0.983299
Mn	      3.96540      3.99655      0.00189         0.919905      0.757344      1.371293
Ni	      5.92742      4.01635     -1.95228         1.162988      0.029298      0.109708
Ni	      1.96970      1.98555     -3.90338        -0.389699     -0.421516     -0.876255
O	      3.94645      3.99711     -1.81945        -0.330063      0.054509     -1.073070
O	      3.95070      2.00488     -4.03600         0.754262     -0.115329     -0.175231
O	      4.08332      2.11573      0.02070         0.602978     -0.858950      0.406135
O	      3.80445     -0.07813     -1.94822         0.710623     -0.954866      0.341887
O	      2.11220      3.97588      0.10245        -0.877058     -0.110320      0.714025
O	      1.96886      1.83761     -1.95833        -0.511652     -0.125587      0.620986
O	      2.00989      6.11702     -1.95376        -0.479946      0.694088     -0.196887
O	      1.86636      3.97836     -4.01461         0.328329      0.726726     -0.247204
