# total energy = -241.45171488 eV
 
CRYSTAL
PRIMVEC
-0.023431 6.551952 6.287824 
6.101632 -0.013101 6.277431 
4.077331 4.370519 -0.017996 
PRIMCOORD
36 1
Li	      6.13688     10.71605      8.40488        -0.028286     -0.073045     -0.021769
Li	      6.10642      8.68910     10.32520         0.012894     -0.023636      0.036422
Li	      6.13871      6.52241      4.31368        -0.055514      0.025614     -0.052688
Li	      6.03674      4.51390      6.22739         0.032984      0.010723      0.018760
Li	      6.09591      4.48276     10.44698         0.014980     -0.004891     -0.013298
Li	      7.98855      6.51320     10.47405         0.065816     -0.052165     -0.006597
Li	      6.11903      8.65254      6.29110        -0.029086     -0.039628     -0.035440
Li	      8.04888      8.77786      8.41586         0.031225     -0.005547      0.068106
Li	      6.07281      6.66543      8.38993         0.013386      0.047759     -0.028219
Mn	      8.10792      8.72058     12.47762         0.026469     -0.074334      0.008332
Mn	      4.11378      8.65520      8.39379         0.056247     -0.002257     -0.021458
Mn	      4.12973      4.31957      4.17208        -0.030502      0.069125     -0.027262
Mn	      4.08910      6.46169      6.32235        -0.002992     -0.025703     -0.070937
V	      0.00025      2.30602      2.21324        -0.175133     -0.084486      0.077174
Cr	      0.05878      6.53251      6.25758         0.030343     -0.013979      0.021170
Cr	      8.09795      4.33185      4.15510        -0.026848      0.009528      0.000629
Cr	      8.11117      4.40707      8.37844        -0.028792      0.226591     -0.053918
Cr	      8.08090      6.57982      6.24379         0.002123      0.045506     -0.005018
O	      2.06711      2.37380      1.92651         0.026544      0.074346     -0.009747
O	      4.06015      4.44842      2.08227        -0.067616      0.017266     -0.027999
O	      4.04851      2.04324      4.20503         0.023468     -0.017078     -0.037294
O	      6.04917      4.35514      4.17436         0.012463     -0.012383      0.009244
O	      6.12239      2.01125      6.46638         0.015562     -0.001578     -0.099307
O	      8.19017      4.48378      6.28192        -0.005182      0.056235     -0.038011
O	      2.18625      4.36255      4.03678        -0.005815      0.023873      0.069005
O	      4.12240      6.54179      3.97563        -0.036805     -0.034691      0.086932
O	      4.05547      4.22748      6.12711         0.019507     -0.072923      0.060097
O	      6.13027      6.53218      6.29239         0.147528      0.012896     -0.006557
O	      6.12762      4.17278      8.35706         0.157470      0.005398      0.012683
O	      8.21126      6.47381      8.28724        -0.020930     -0.121923     -0.019893
O	      2.01915      6.61076      6.23175        -0.106509     -0.017053      0.048395
O	      4.00112      8.86313      6.31789        -0.060719      0.059582      0.056797
O	      4.02506      6.56191      8.47170         0.008825     -0.034934      0.042852
O	      5.94794      8.71151      8.35901        -0.077421     -0.029965     -0.012164
O	      5.99841      6.51825     10.58730         0.004996      0.038133     -0.046130
O	      8.07437      8.87588     10.59336         0.055320      0.019623      0.017110
