# total energy = -225.92273858 eV
 
CRYSTAL
PRIMVEC
0.033456 6.202655 6.280185 
6.303216 0.041086 6.272478 
4.219276 4.146979 0.010592 
PRIMCOORD
36 1
Li	     10.47610      4.25136      6.30491         0.015727     -0.004005      0.022411
Li	      8.28545      2.16353      6.32381        -0.096404      0.004083      0.022167
Li	      2.09014      0.11804      2.13515         0.004713     -0.021054     -0.066919
Li	      4.11175      2.05956      2.10779         0.029544      0.040275     -0.031859
Li	      6.33750      2.08533      8.31435        -0.027374      0.029859     -0.068644
Li	      4.27673      4.19749      4.11935         0.008087      0.025681     -0.004543
Li	      6.40525      4.10546      6.28624         0.025708      0.018636      0.040704
Li	      8.42518      6.26542     10.41173        -0.014423     -0.006194      0.003680
Li	      6.29564      6.15573      8.40674         0.034233      0.019958     -0.046527
V	      6.31358      8.40262      6.48788        -0.157787     -0.098774      0.508582
Cr	      6.36198      8.29835     10.47914         0.011200     -0.022055     -0.123889
Cr	      2.21600      4.13544      2.07730        -0.152155      0.073658      0.016629
Cr	      6.33125      6.19628      4.17867         0.131113      0.021433      0.039288
Cr	      4.25803      2.07524      6.27224        -0.040697      0.074469      0.144083
Cr	      6.31999      4.21144     10.45518         0.022878      0.024510     -0.088390
Co	      4.32934      4.16050      8.35557        -0.310584      0.036766     -0.024134
Cu	      4.24212      6.22200      6.33328        -0.128153      0.104626     -0.020583
Ni	      4.23839      6.20935     10.41123         0.007550      0.034746      0.151221
O	      2.08804      2.20661      2.16101         0.023759      0.015311      0.052345
O	      4.02292      4.15505      2.12169        -0.053724      0.014066     -0.006639
O	      4.24517      2.05625      4.23084        -0.049323      0.089159     -0.008452
O	      6.35929      4.15738      4.15653        -0.031647      0.023385      0.017617
O	      6.24597      2.12040      6.14318         0.025406      0.005292     -0.057642
O	      8.42514      4.22753      6.38593         0.033110     -0.030960      0.010156
O	      2.03969      4.08790      4.18346         0.011006     -0.003821     -0.031606
O	      4.34756      6.30682      4.33684        -0.088135     -0.068978      0.035154
O	      4.02797      4.10407      6.24695         0.235652     -0.059907      0.191426
O	      6.47172      6.37730      6.19082         0.067319     -0.038600     -0.095477
O	      6.41705      4.16326      8.46823         0.276879     -0.027782      0.109072
O	      8.43187      6.16677      8.29656         0.044242      0.117662     -0.061335
O	      2.08535      5.99640      6.26320         0.112851      0.119972      0.026594
O	      4.45913      8.24849      6.24484         0.039802      0.030486     -0.040676
O	      4.21757      6.15528      8.28408        -0.002398     -0.509742     -0.100386
O	      6.31998      8.28315      8.28568        -0.123716      0.042978     -0.131912
O	      6.28832      6.26291     10.44218         0.054329     -0.042448      0.026798
O	      8.44397      8.30328     10.48493         0.061413     -0.032689     -0.408313
