# total energy = -225.77218731 eV
 
CRYSTAL
PRIMVEC
-0.034717 6.333047 6.190830 
6.344601 0.014328 6.142572 
4.238851 4.198490 0.000386 
PRIMCOORD
36 1
Li	      4.22743      4.18176      0.09254        -0.054657      0.024591     -0.035245
Li	     10.41070      6.33228      8.26188         0.022469      0.116298     -0.054189
Li	      8.43470      4.37409      8.29066        -0.182907     -0.058376     -0.064831
Li	      4.05447      4.32643      4.09463         0.005507     -0.013029     -0.054542
Li	      0.09810      4.14697      4.03046         0.000830      0.026512     -0.156699
Li	      2.20649      6.15631      4.03287        -0.015440      0.010687      0.067319
Li	      2.16475      4.24232      6.07322         0.024627      0.032078      0.046264
Li	      4.31289      4.11578      8.16496         0.184691      0.008318      0.101607
Li	      6.46195      6.24143      8.17560         0.015497     -0.134977      0.046546
V	      6.35862      8.30364     10.29654         0.082209      0.006904      0.058670
Cr	      2.06923      0.02036      2.00368        -0.006905     -0.013129      0.137581
Cr	      4.22429      2.16034      1.99852        -0.021225     -0.000377      0.040818
Cr	      8.43885     10.50481     10.28761         0.146214     -0.156459      0.013670
Cr	      2.00843      2.23106      4.11356         0.146469     -0.064344     -0.293676
Cr	      6.30969      4.22410      6.26213         0.393094     -0.174011     -0.192119
Co	      2.11278      2.10921      0.01906        -0.115061      0.081835      0.000460
Cu	      8.40884      6.40639      6.30003         0.070882     -0.007938     -0.180814
Cu	      4.18339      6.31426      6.13662         0.015525     -0.063914      0.087027
O	      8.44108      6.34375      8.16397        -0.009992      0.093694     -0.141996
O	      2.20144      2.03625      2.03767        -0.038540      0.029551      0.039208
O	      4.34706      4.11942      2.05418        -0.053048      0.095809      0.040774
O	      4.27926      2.01018      4.12256        -0.123499      0.139417      0.239725
O	      6.45900      4.14017      4.08643        -0.116280      0.106774     -0.058172
O	      6.48039      2.19408      6.05606         0.124562     -0.121142      0.032646
O	      8.36871      4.09909      6.07319         0.176810     -0.006648      0.076714
O	      2.09645      4.11857      4.14172         0.078684      0.107451      0.036581
O	      4.33395      6.31742      4.18734        -0.134655     -0.041956     -0.155353
O	      4.35869      4.23541      6.13847        -0.529600      0.150008      0.125063
O	      6.30194      6.22789      6.08701        -0.245585      0.173881      0.170423
O	      6.33670      4.23262      8.12187        -0.049600      0.011129      0.469096
O	      2.11139      6.49091      6.24045         0.126040     -0.057031     -0.137198
O	      4.01257      8.42180      6.24542         0.035953     -0.108166     -0.105009
O	      4.09172      6.43816      8.26876        -0.000054      0.007192      0.012075
O	      6.21608      8.53654      8.32494         0.027308     -0.056970     -0.118927
O	      6.22468      6.52394     10.28203        -0.009915     -0.110836     -0.024548
O	      8.30123      8.50123     10.40799         0.029593     -0.032826     -0.068948
