# total energy = -225.36461471 eV
 
CRYSTAL
PRIMVEC
0.000454 6.335224 6.226930 
6.104564 0.021837 6.205229 
4.084675 4.223840 -0.000204 
PRIMCOORD
36 1
Li	      8.12477      2.23628      6.15079        -0.041395      0.030578     -0.062314
Li	      8.10269      4.24680      4.24629        -0.004134     -0.098300      0.028029
Li	      6.09893      2.22912      4.18890         0.095165     -0.006653     -0.009455
Li	      8.15952      4.26718      8.27711        -0.034372      0.073332      0.015769
Li	      2.12253      2.08705      4.13985        -0.133342      0.013839      0.000982
Li	      4.04304      4.11020      4.21409        -0.042484      0.057664      0.046427
Li	      8.15820      6.29120      6.15905        -0.011565     -0.009209      0.041600
Li	      8.13091      6.35177     10.31257         0.011617      0.001148     -0.011578
Li	      2.08474      4.18017      6.12605         0.033414     -0.022951      0.024169
V	      4.02370      6.30232      6.13286         0.013938     -0.414820     -0.015820
Cr	      6.04987      0.07117      6.16821         0.067561      0.109853     -0.095130
Cr	      6.13660      4.21384      2.18015         0.019424     -0.162258     -0.099532
Cr	     10.18296      6.36674      8.28815         0.011461      0.036333     -0.147056
Cr	      0.03611      4.25023      4.17569        -0.041794      0.080469     -0.166393
Cr	      6.14375      6.39010      8.31518         0.234473     -0.030259     -0.042383
Co	      4.02865      2.14913      2.15812        -0.124996     -0.036187      1.039446
Ni	      6.17278      4.20614      6.10165         0.011286      0.009387      0.103369
Ni	      8.13641      8.43534      8.30563        -0.152216     -0.009496     -0.019042
O	      2.02693      1.96938      2.08419        -0.365875      0.125805     -0.042530
O	      4.14117      4.31629      1.98188        -0.057323     -0.290302      0.036937
O	      4.07010      2.13107      3.96318        -0.106686      0.054977     -0.365014
O	      6.11484      4.20966      4.10455        -0.012079      0.021607     -0.147386
O	      6.11329      2.07990      6.30255        -0.021526     -0.080661      0.000979
O	      8.20073      4.26501      6.21222         0.188784     -0.004605     -0.002210
O	      1.86688      4.19787      4.14782         0.050820     -0.050996      0.011851
O	      4.06643      6.44105      4.17817         0.021508      0.239268      0.133455
O	      4.10124      4.38085      6.23004        -0.039786      0.043281     -0.254184
O	      5.95965      6.33321      6.31755        -0.036428      0.064267      0.009797
O	      6.11475      4.25646      8.33428         0.166656     -0.063745      0.094927
O	      8.13992      6.41475      8.27263        -0.020004     -0.188117      0.005193
O	      2.14510      6.33066      6.30070        -0.095511      0.024304      0.074917
O	      4.08271      8.47529      6.24341        -0.004423      0.018384     -0.295767
O	      4.09396      6.33865      8.18619        -0.064290      0.362698      0.039811
O	      6.03628      8.41672      8.33308         0.404881      0.049194     -0.268841
O	      6.12588      6.22057     10.35538        -0.039160      0.033417      0.088945
O	      8.32859      8.44394     10.31662         0.118396      0.018757      0.248036
