# total energy = -228.04031731 eV
 
CRYSTAL
PRIMVEC
-0.001519 6.128318 6.238505 
6.196838 -0.006418 6.243411 
4.141144 4.098822 -0.014229 
PRIMCOORD
36 1
Li	      4.16568     10.18115      6.21881         0.098884      0.115517     -0.058805
Li	      2.17934      8.14135      6.21781        -0.057152     -0.065334     -0.071442
Li	      4.14796      8.17251      8.22169        -0.042495      0.016462      0.031350
Li	     10.31136      6.12364      8.27615         0.004000     -0.011810      0.108462
Li	      6.12725      6.19261      4.21728        -0.130239     -0.033239     -0.082447
Li	      4.12941      2.04272      6.20447         0.092681     -0.011701     -0.085112
Li	      4.15814      8.13345      4.28704        -0.030904     -0.109869     -0.033980
Li	      4.16156      6.22589      6.21028        -0.131697     -0.041839     -0.085595
Li	      6.19015      6.11115      8.26269         0.012485     -0.054712      0.085790
V	      2.09614      4.03539      2.02642         0.002997     -0.095798      0.112585
Cr	      2.02640      0.06887      2.04353         0.002668      0.186276     -0.044250
Cr	      4.22096      0.04283      4.20484         0.077844     -0.118754      0.015558
Cr	      6.16862      4.11516      6.21056         0.070542     -0.137864      0.010544
Cr	      6.11527      8.11265      6.21815        -0.020863      0.224302     -0.146604
Cr	      8.28818      8.13548      8.30287         0.192147     -0.072757      0.135227
Co	      6.20941      8.16692     10.40119         0.168716     -0.071301      0.114192
Co	      2.14801      6.13380      4.22398        -0.988928     -0.005483     -0.158297
Ni	      4.10429      4.05014      4.17808         0.015887      0.389046     -0.005038
O	      2.05833      2.16471      2.10380        -0.011786      0.047810      0.017971
O	      4.09337      4.11635      2.12027         0.023988     -0.033141     -0.162972
O	      4.30701      2.00951      4.14526        -0.010132     -0.195773     -0.061166
O	      6.24903      4.03348      4.11729         0.172142      0.098859      0.070437
O	      6.22339      2.14396      6.04196        -0.040741      0.103778      0.072039
O	      8.19501      4.10389      6.29273        -0.055287      0.060914     -0.070008
O	      2.04770      4.09884      4.13488         0.114744      0.477270      0.172346
O	      3.95907      6.10754      4.16153         0.192888     -0.226008      0.020226
O	      4.12788      4.07392      6.30324         0.006961     -0.104743      0.150678
O	      6.20004      6.12860      6.19348         0.004112      0.068745      0.049742
O	      6.21129      4.06283      8.20515        -0.059354     -0.004298     -0.183045
O	      8.24581      6.01590      8.38595         0.049782      0.097249      0.229560
O	      2.05253      6.06141      6.30125         0.030560     -0.205321     -0.032881
O	      4.21226      8.17735      6.23450         0.116727     -0.011579      0.096863
O	      4.03746      6.04417      8.45407         0.045658      0.017961     -0.012338
O	      6.28410      8.27060      8.30002        -0.030168     -0.072829     -0.077174
O	      6.22292      6.26340     10.41061         0.082822      0.073704     -0.092585
O	      8.19754      8.20023     10.31687         0.030510     -0.293740     -0.029830
