# total energy = -231.14736963 eV
 
CRYSTAL
PRIMVEC
0.022328 6.237959 6.217361 
6.354659 0.021075 6.218359 
4.261095 4.184045 -0.010565 
PRIMCOORD
36 1
Li	      2.24987      8.33403      6.26442        -0.096975     -0.022001      0.100275
Li	      6.35116      4.20818      2.09973         0.188000     -0.179191      0.064070
Li	      4.32765      8.26121      8.21119         0.094669     -0.122309      0.235277
Li	      4.20019      6.29433     10.23432        -0.004617      0.083856     -0.182573
Li	      6.39821      8.38962     10.26471        -0.085050      0.019399     -0.198998
Li	      0.13978      1.96635      2.00856        -0.050362      0.119038      0.076403
Li	      6.30644      8.35359      6.34674         0.179927     -0.089697      0.186095
Li	      4.26568      6.32695      6.35186         0.096556     -0.244554      0.187466
Li	      4.13909      4.28743      8.24659        -0.120791      0.128832     -0.033127
V	      2.19202      6.33077      4.24141        -0.022393     -0.062635     -1.100963
Cr	      2.16909      4.11267      2.04426        -0.428355      0.188423      0.519169
Cr	      6.38760      6.24158      4.12110         0.137719     -0.116419     -0.083804
Cr	      8.50353      6.29706      6.23192        -0.532540      0.341446     -0.133051
Cr	      6.36736      4.13550      6.21040        -0.389769      0.326876     -0.042628
Cr	     10.58560      8.37353     10.35341         0.365750      0.229568     -0.764402
Co	      4.27288      4.18044      0.00635        -0.178161     -0.293143      0.440529
Co	      4.28288      4.15254      4.10158         0.269551     -0.068424      0.117296
Co	      6.29661      6.35910      8.30243         0.499736     -0.407323     -0.213757
O	      2.12774      2.13404      2.16537        -0.111701     -0.020238     -0.253601
O	      4.17423      4.15491      2.04737         0.100201      0.197302     -0.688159
O	      4.09362      2.13049      4.26694         0.024561     -0.186221      0.087449
O	      6.37983      4.25509      4.19837        -0.036120      0.015315      0.128328
O	      6.24166      2.09402      6.21594         0.321363     -0.547865      0.059721
O	      8.43091      4.25243      6.28962         0.469929     -0.193391     -0.221911
O	      2.05253      4.16865      4.08108        -0.023571      0.026320      0.068751
O	      4.21917      6.31643      4.13069        -0.114121      0.057731      0.048295
O	      4.36948      4.10339      6.17615         0.167052     -0.178819      0.112270
O	      6.46011      6.17599      6.15333        -0.028092      0.012424      0.529964
O	      6.47509      4.30220      8.27456         0.003407     -0.204246      0.106760
O	      8.37871      6.18052      8.35873         0.192455      0.068793      0.121073
O	      2.11623      6.22550      6.03025        -0.238432     -0.029564      0.542073
O	      4.24867      8.46134      6.08113         0.030679      0.673911      0.332293
O	      4.48383      6.26900      8.29927        -0.537875     -0.013387     -0.123561
O	      6.38850      8.17707      8.29705        -0.035906      0.512799     -0.083352
O	      6.48266      6.23447     10.39783         0.242362     -0.175288     -0.031865
O	      8.63152      8.20685     10.31293        -0.349088      0.152682      0.092192
