# total energy = -223.88807894 eV
 
CRYSTAL
PRIMVEC
0.038401 6.231749 6.328162 
6.292752 0.031786 6.334976 
4.189690 4.153424 0.027365 
PRIMCOORD
36 1
Li	      8.31679      2.09019      6.34615         0.035654     -0.007062      0.053560
Li	     10.45372      6.30724      8.49331         0.056548     -0.032879      0.019712
Li	      8.32118      4.25431      8.47158        -0.036851     -0.018790     -0.007625
Li	      4.09985      4.22852      4.29060        -0.021274     -0.017425     -0.028699
Li	      8.40907      6.25619      6.39699         0.008488     -0.002057     -0.023163
Li	      2.17597      6.16023      4.28913         0.013860      0.017883      0.006912
Li	      2.21306      4.19047      6.23753        -0.013699      0.013496      0.030197
Li	      4.17475      6.19949      6.28297        -0.059239      0.079207      0.020307
Li	      6.39077      6.16658      8.37273        -0.020927      0.018590     -0.064943
V	      4.22136      8.32353      8.41174        -0.041839     -0.054800     -0.048091
Cr	      6.28966      0.06897      6.35566         0.022271     -0.019859      0.274078
Cr	      2.08134      0.01647      2.09947        -0.018358      0.039229      0.012379
Cr	      4.22064      0.02344      4.24861        -0.094204      0.092235     -0.126331
Cr	      6.20988      6.30967      4.34072        -0.013051     -0.090492      0.123303
Cr	      8.48481      8.15945      8.38737        -0.004564      0.122377     -0.224982
Cu	      6.35959      8.29519     10.61318        -0.008702     -0.030640     -0.051194
Cu	      6.37207      4.19236     10.49636         0.058616      0.019776      0.078489
Ni	      6.32287      4.14120      6.33535         0.016010      0.032128     -0.037643
O	      8.39077      6.39304      8.49923         0.012560     -0.068450     -0.026353
O	      2.20157      2.01620      2.25086        -0.133569      0.054326     -0.038713
O	      4.25967      4.07439      2.09927        -0.035605      0.191050     -0.020429
O	      4.04330      2.06816      4.07838        -0.119312     -0.052469      0.093160
O	      6.35880      4.20178      4.20798         0.063164      0.176160     -0.043029
O	      6.29556      2.05786      6.20429        -0.017289     -0.136109      0.132831
O	      8.44180      4.16136      6.25176         0.088815     -0.026160      0.018269
O	      2.03552      4.08308      4.22907         0.071895      0.169608      0.031120
O	      4.35789      6.28089      4.23513        -0.049200     -0.103056     -0.066029
O	      4.22340      4.21194      6.52510        -0.103743     -0.019915      0.099255
O	      6.36653      6.21559      6.14921        -0.053622      0.125124      0.004060
O	      6.20260      4.16550      8.30697        -0.060954     -0.008810      0.074021
O	      2.03380      6.25413      6.45358         0.015487     -0.008680     -0.049459
O	      4.22503      8.35311      6.62374        -0.004313      0.025679     -0.051136
O	      4.15321      6.28865      8.51311         0.063893     -0.184042      0.099853
O	      6.27250      8.37167      8.61322         0.244991     -0.072921     -0.117705
O	      6.26452      6.24285     10.67203         0.082736     -0.139973     -0.226647
O	      8.58357      8.43664     10.37480         0.055328     -0.082279      0.080661
