# total energy = -223.63512954 eV
 
CRYSTAL
PRIMVEC
-0.021241 6.521012 6.177591 
6.129993 -0.009973 6.166550 
4.105408 4.359216 -0.025798 
PRIMCOORD
36 1
Li	      4.02988      2.30952      2.11787        -0.037986      0.050345     -0.020044
Li	      4.08555      6.51160      2.07940         0.105858      0.028271     -0.066389
Li	      8.19056      4.47333      8.12133        -0.013437     -0.079894     -0.009170
Li	      2.01836      2.12022      3.96802         0.072414      0.027497     -0.096171
Li	      4.10759      4.39955      4.03011        -0.016871      0.001304      0.047877
Li	      4.19190      2.12889      6.21767         0.039026     -0.003117     -0.029563
Li	      6.20241      4.31067      6.25588        -0.041188     -0.021726      0.023314
Li	      3.98855      6.45166      6.13413         0.001935     -0.052382      0.051366
Li	      6.21157      6.40355      8.24869        -0.013354      0.006290     -0.037866
V	      6.11174      8.32504      6.16947         0.000214      0.290608      0.060806
Cr	      2.05452      2.21693      0.06063        -0.027175      0.227054      0.019942
Cr	      4.05545      0.05943      4.10389        -0.059146     -0.057003     -0.118887
Cr	      6.08019      2.20347      4.09953        -0.059183      0.000045     -0.012666
Cr	      4.13361      8.62025      4.06417         0.064987      0.224021     -0.001284
Cr	      4.08287      4.30454      8.19679         0.009687      0.134419     -0.065793
Cu	     10.22710      4.42183      6.21261        -0.320271      0.016787      0.151236
Cu	      2.01098      0.06906      2.03920         0.005581      0.161063      0.123425
Cu	      2.09644      6.48806      4.05225         0.103168     -0.012351      0.025304
O	      4.03222      6.69073      4.10781        -0.141548     -0.126410      0.021148
O	      8.18769      6.67130      8.27099         0.024613     -0.057568      0.019051
O	      2.06673      2.18190      1.93946         0.042142      0.016561      0.155048
O	      4.23135      4.38633      1.98558        -0.184860      0.047175     -0.026883
O	      4.15507      2.02418      4.10879        -0.012101      0.046084      0.032942
O	      6.15568      4.22047      4.05115        -0.007103     -0.064213      0.082016
O	      6.22833      2.32040      6.03741         0.022487      0.036022     -0.097425
O	      8.24591      4.24032      6.10550         0.109298      0.123931     -0.000345
O	      2.00184      4.24482      4.34101        -0.102513     -0.017949     -0.002411
O	      3.83237      4.34880      6.21665        -0.075491     -0.050535      0.074115
O	      6.13189      6.62667      6.18655         0.011480     -0.515561     -0.035522
O	      6.06121      4.42084      8.30461        -0.098442      0.029811      0.017231
O	      1.97341      6.68926      6.11543         0.128184     -0.084484     -0.216926
O	      4.20899      8.60160      6.12205         0.052853     -0.063857     -0.115085
O	      3.90485      6.38239      8.27139         0.259617     -0.161211      0.031711
O	      6.12539      8.61336      8.09802         0.075672     -0.066147      0.066418
O	      6.12094      6.55855     10.35163         0.067018     -0.008777     -0.015431
O	      8.19276      8.89237     10.25806         0.014436     -0.024103     -0.035089
