# total energy = -93.09362923 eV
 
CRYSTAL
PRIMVEC
2.077839 4.116803 2.038932 
4.060106 -2.022990 -2.013765 
0.009683 4.107974 -4.069929 
PRIMCOORD
16 1
Li	      2.02675      2.03525      0.00892        -0.043506     -0.060816      0.061541
Li	      3.97808      2.09107     -2.00271         0.093449     -0.216871      0.020968
Li	      2.03027      4.05709     -1.99535        -0.091882      0.015200      0.027186
Li	      4.08260      4.03383     -3.97445         0.007872      0.156792     -0.121737
Mn	      0.01296      4.03898     -3.99512        -1.066018      0.319866     -0.598785
Mn	      4.04716      4.07895      0.00193         0.510489      0.421770      0.764335
Ni	      6.04963      4.09916     -1.99253         0.660216      0.007210      0.083316
Ni	      2.01032      2.02649     -3.98386        -0.202949     -0.206979     -0.491431
O	      4.02782      4.07953     -1.85696        -0.210805     -0.023427     -0.548436
O	      4.03216      2.04622     -4.11922         0.447210     -0.017917     -0.124870
O	      4.16750      2.15935      0.02113         0.388664     -0.453457      0.185740
O	      3.88289     -0.07974     -1.98839         0.381101     -0.594206      0.236364
O	      2.15575      4.05786      0.10456        -0.428145     -0.110172      0.433794
O	      2.00946      1.87550     -1.99870        -0.246858     -0.103144      0.375238
O	      2.05133      6.24314     -1.99404        -0.324312      0.439508     -0.146393
O	      1.90484      4.06038     -4.09738         0.125474      0.426642     -0.156829
