# total energy = -230.77083048 eV
 
CRYSTAL
PRIMVEC
0.038695 6.286137 6.333746 
6.318617 0.024532 6.347977 
4.215477 4.203349 0.013377 
PRIMCOORD
36 1
Li	      8.27817      2.09888      6.28497         0.025107     -0.025245     -0.052538
Li	      6.47789     10.41040      8.59788         0.012518     -0.057838     -0.014176
Li	      8.35536     10.47430     10.44501         0.018231     -0.039717     -0.002359
Li	      6.35069      2.21824      4.29208         0.007311     -0.030105     -0.003012
Li	      6.35202      2.11620      8.30948         0.014583      0.024592     -0.034468
Li	      4.34228      2.20525      6.26911        -0.001257     -0.019565     -0.025233
Li	      6.21440      4.07587      6.23159        -0.021181     -0.025304     -0.010510
Li	      4.18162      4.34160      8.49039        -0.043101      0.066234      0.019108
Li	      6.24260      6.35236      8.46659         0.019374     -0.002090      0.031018
V	      8.34772      4.28014      8.28616        -0.168377      0.035237      0.012489
Cr	      6.34473      0.11656      6.35706         0.083391     -0.092268     -0.100280
Cr	      4.25555      8.36154      8.48585         0.054356     -0.195857     -0.187005
Cr	      6.36357      6.25223      4.26315        -0.158924      0.009159      0.183373
Cr	     10.53591      8.42753     10.61181        -0.105953     -0.016416      0.054166
Cr	      8.46522      6.33877     10.57077         0.029791      0.103549      0.110629
Fe	      6.46201      8.33462      6.50304        -0.109552      0.121892     -0.100667
Co	      4.25877      6.26425      6.45361        -0.115652      0.192854     -0.304004
Ni	      4.29455      4.18075      4.25477        -0.034614      0.046555      0.005416
O	      2.17796      2.30034      2.21101         0.001513      0.021822      0.017732
O	      4.05286      4.14180      2.09390         0.036815      0.004306     -0.068959
O	      4.12395      2.13814      4.13001         0.013458     -0.094749     -0.001806
O	      6.28730      4.31115      4.22892         0.132785      0.032233     -0.031451
O	      6.33113      2.03020      6.34321        -0.023385      0.049748     -0.009487
O	      8.47168      4.23398      6.53810         0.031936     -0.024087     -0.065110
O	      2.10236      4.20497      4.20365        -0.053286     -0.038014      0.064765
O	      4.22906      6.34540      4.27949         0.092425     -0.027770      0.454345
O	      4.17413      4.20162      6.33173         0.138055      0.214337      0.142363
O	      6.34327      6.38114      6.26107        -0.051955     -0.045821     -0.018923
O	      6.55107      4.19327      8.56843         0.066403     -0.024334      0.021695
O	      8.48107      6.07669      8.57569         0.018798     -0.051857     -0.000292
O	      2.08114      6.23836      6.23880         0.011666     -0.027163      0.050937
O	      4.29763      8.47011      6.33570         0.058565     -0.062562      0.074844
O	      4.23435      6.38643      8.43898         0.037191      0.020725     -0.402493
O	      6.26665      8.39877      8.40780        -0.049086      0.016220      0.152816
O	      6.45982      6.21561     10.67354        -0.002540     -0.016794      0.028953
O	      8.58531      8.31012     10.52909         0.034591     -0.041905      0.008124
