# total energy = -227.32606835 eV
 
CRYSTAL
PRIMVEC
0.000882 6.197250 6.188225 
6.325800 -0.006407 6.195778 
4.223696 4.143045 -0.010610 
PRIMCOORD
36 1
Li	      0.12478      6.12762      6.12029         0.078732     -0.010884     -0.081368
Li	      2.12369      6.14775      8.19021         0.056140     -0.038854     -0.019322
Li	      4.28504      6.13520     10.24097         0.049878      0.006516     -0.064909
Li	      2.12830      4.17341      2.11736        -0.028451      0.055221      0.027518
Li	      8.34042      6.16996     10.35020        -0.013564     -0.055765     -0.023414
Li	      2.08875      4.28658      6.19018        -0.008282      0.017781      0.000040
Li	      4.10258      6.19407      6.24613        -0.015815     -0.049029     -0.010059
Li	      8.39415      8.28289      8.29919         0.001801     -0.042210      0.001373
Li	      6.33695      6.25656      8.32634        -0.007752      0.048627     -0.054557
V	      6.36530      4.18242      6.21181        -0.111789      0.173430      0.036102
Cr	      4.31572      8.21921      8.22003         0.307176     -0.174765     -0.074442
Cr	      4.19108      6.15518      2.06119        -0.118450     -0.064465      0.127330
Cr	      2.11605      2.08061      4.09386        -0.101048      0.062377      0.194313
Cr	      8.45683      6.17968      6.19241        -0.110497      0.033671      0.154550
Cr	      6.32318      4.21542     10.30090        -0.045840      0.007234      0.046168
Fe	      2.17223      8.09515      6.15159        -0.053278      0.063880      0.007124
Cu	      4.16011      4.17354      4.12545        -0.070017      0.058600     -0.001090
Ni	      6.41057      8.19634     10.26034        -0.042681     -0.009772     -0.020687
O	      2.12680      2.07414      2.06256        -0.060175      0.002666      0.037064
O	      4.19107      4.09056      2.16729         0.003741      0.028277     -0.084938
O	      4.18548      2.06846      4.09715        -0.153397     -0.189968      0.007756
O	      6.37402      4.16257      4.25553        -0.014456      0.149932      0.026516
O	      6.30772      2.10338      6.21303         0.004168      0.006730      0.092087
O	      8.23437      4.14072      6.24126         0.021987     -0.018886     -0.042311
O	      1.98129      4.05557      4.15650         0.019849     -0.134527     -0.033342
O	      4.32270      6.27455      4.03833         0.181544      0.174635     -0.054092
O	      4.38866      4.06708      6.11451         0.131768     -0.095314      0.156899
O	      6.43643      6.13310      6.11769         0.116573     -0.129275     -0.076066
O	      6.27441      4.03566      8.23746         0.036393     -0.055914     -0.058552
O	      8.55570      6.19470      8.12968         0.070188     -0.008938     -0.048804
O	      2.11191      6.24120      6.19630        -0.036669      0.090058      0.000813
O	      4.14358      8.30910      6.21138        -0.000067      0.004379     -0.018425
O	      4.20264      6.41904      8.22071        -0.003398      0.180109      0.041821
O	      6.17615      8.29944      8.26258        -0.196321      0.005060     -0.102625
O	      6.32000      6.16899     10.30649        -0.015504     -0.084409     -0.012987
O	      8.47944      8.28372     10.37900         0.127511     -0.006208     -0.075482
