# total energy = -227.86685271 eV
 
CRYSTAL
PRIMVEC
-0.004186 6.310602 6.272088 
6.247235 0.005061 6.262718 
4.163981 4.199964 0.004273 
PRIMCOORD
36 1
Li	     10.40366      4.23852      6.30283         0.063282      0.009137     -0.001672
Li	      8.25649      2.17974      6.27920        -0.096418      0.091024     -0.011688
Li	      8.30100      4.15739      4.21641         0.028110     -0.006999      0.022081
Li	      4.15731      6.28000      2.16646        -0.044435      0.000571      0.051163
Li	      8.31859      4.22876      8.31864        -0.017218      0.044513     -0.030861
Li	      6.17875      6.22020      4.10691         0.000878     -0.029747     -0.015577
Li	      4.22800      4.26286      4.09444        -0.022753     -0.006421      0.004238
Li	      8.36244      6.39606     10.37586        -0.010220      0.043188     -0.112867
Li	      8.39586      8.35186      8.42288         0.013814     -0.082343      0.027394
V	      2.12314      4.24988      6.13978         0.134874     -0.046392      0.198782
Cr	      4.09231      2.15754      2.14392         0.032188     -0.009659      0.006423
Cr	      6.30914      8.42000     10.43995         0.003374     -0.196506      0.045428
Cr	     10.29820      8.41528     10.45128        -0.067696      0.065130      0.122481
Cr	      4.15660      6.30558      6.24487         0.060952     -0.097947     -0.026150
Cr	      6.27869      6.26914      8.40145         0.139719      0.018273     -0.033680
Fe	      8.39236      6.17714      6.26553        -0.150089      0.442051     -0.080938
Cu	      6.20350      4.26544      2.14924         0.025237     -0.088068     -0.143344
Cu	      6.28732      4.14956      6.27378        -0.184319      0.116177     -0.092920
O	      8.21908      4.27470      6.26366         0.247677     -0.325268      0.030562
O	      2.17752      2.03231      2.10323        -0.083676      0.092139     -0.007620
O	      4.21713      4.10007      2.08653        -0.048624      0.047619     -0.005078
O	      4.27583      2.10929      4.16141        -0.072480     -0.002887     -0.073811
O	      6.26007      4.09286      4.09034         0.014394      0.216400      0.261273
O	      6.18701      2.14922      6.16712        -0.024897     -0.496007      0.028186
O	      1.96938      4.20513      4.38495         0.012449      0.000366     -0.246288
O	      4.13849      6.42415      4.27461         0.026941     -0.019011     -0.004441
O	      4.09082      4.26358      6.24639        -0.003275      0.011570      0.009282
O	      6.23349      6.36703      6.32183        -0.001156      0.253631      0.025302
O	      6.23514      4.30628      8.48910         0.032083     -0.059662     -0.153719
O	      8.25404      6.32122      8.21809        -0.008532     -0.016423      0.163724
O	      2.17396      6.16487      6.36636         0.021584      0.020301      0.032927
O	      4.25234      8.34704      6.30074        -0.047349      0.039149      0.004192
O	      4.21396      6.41439      8.26233        -0.014318     -0.006061      0.001103
O	      6.16801      8.34445      8.31900         0.017248     -0.012127      0.003717
O	      6.27629      6.32223     10.37516        -0.035652     -0.043385      0.003844
O	      8.31739      8.40631     10.47537         0.058304      0.033674     -0.001446
