# total energy = -228.77484018 eV
 
CRYSTAL
PRIMVEC
0.015440 6.157879 6.319348 
6.259208 -0.000453 6.335552 
4.175215 4.118526 -0.002986 
PRIMCOORD
36 1
Li	      8.33463      8.21644     12.51144        -0.021990      0.008043     -0.143481
Li	      4.28578      8.13826      8.54651         0.080385     -0.055526      0.087389
Li	      4.12617      0.04211      4.21730         0.009204      0.003788      0.015683
Li	      6.23274      2.09040      4.19388         0.018049     -0.044712     -0.015443
Li	      4.14157      2.04964      6.25889         0.012562     -0.006820     -0.000888
Li	     10.40495      8.19872     10.54147         0.001739      0.054514     -0.005569
Li	      8.39823      6.20820     10.54792        -0.036770      0.002880     -0.016092
Li	      6.28963      8.17170      6.36003         0.016467     -0.011596      0.041988
Li	      6.25182      6.24094      8.34309         0.010218      0.024673     -0.128896
V	      6.26775      6.08050     12.46958         0.012744      0.013767     -0.241839
Cr	      6.28617     10.25838      8.45172         0.041394     -0.074545     -0.007567
Cr	     10.42829      6.18374      8.45379        -0.030326      0.015992     -0.005955
Cr	      2.08599      4.11803      2.12682        -0.022138      0.038112     -0.002828
Cr	      4.16396      4.05008      4.26723        -0.034310     -0.048573      0.035560
Cr	      4.19085      6.22046      6.29526        -0.029165      0.063123      0.035182
Fe	      8.28550      8.18825      8.60070         0.099594      0.033270     -0.172723
Ni	      6.29703      4.10566      6.27612         0.061845     -0.087408     -0.040193
Ni	      2.13869      2.06962      4.26129        -0.007910      0.020386      0.028000
O	      1.99449      2.05780      2.14705        -0.010889      0.017844     -0.032773
O	      4.17557      4.15928      2.16311        -0.012534     -0.012286      0.011825
O	      4.16174      2.10143      4.24016         0.120835      0.017348      0.017097
O	      6.20567      4.11274      4.18398        -0.054257     -0.067190     -0.088033
O	      6.27897      1.88151      6.45840         0.002357     -0.032428      0.042985
O	      8.52829      4.09202      6.42476         0.023643     -0.007692      0.051675
O	      2.15772      4.11651      4.10256         0.006752      0.125546     -0.019052
O	      4.19457      6.11972      4.22788        -0.099089      0.005012     -0.012204
O	      4.22446      4.21926      6.27528        -0.144506     -0.044738      0.017727
O	      6.15086      6.14457      6.30963        -0.019888      0.108149      0.058767
O	      6.32353      4.05152      8.34850        -0.026567      0.012544      0.117597
O	      8.41445      6.15374      8.43011         0.051934     -0.096765     -0.019676
O	      1.98103      6.16503      6.42126         0.062772     -0.004899      0.038836
O	      4.20096      8.35815      6.32555        -0.015430     -0.058963     -0.003946
O	      4.09108      6.12637      8.29729         0.043548      0.053222     -0.022112
O	      6.34228      8.27966      8.42921        -0.120651      0.013913      0.008098
O	      6.28343      6.17281     10.76548         0.006842     -0.016380      0.219429
O	      8.40018      8.24010     10.45016         0.003537      0.038395      0.151431
