# total energy = -232.06920255 eV
 
CRYSTAL
PRIMVEC
0.029733 6.282613 6.262322 
6.279335 0.044055 6.247936 
4.210154 4.202586 0.005529 
PRIMCOORD
36 1
Li	      4.21112      4.24259      0.15047        -0.009847     -0.005983      0.040127
Li	      6.16017      4.20161      2.07329        -0.065221     -0.009962     -0.030813
Li	     10.30402      6.20678      8.35853        -0.055602     -0.059092      0.033721
Li	      8.47143      4.36798      8.37412        -0.004352     -0.002232      0.022556
Li	      4.13637      4.26261      4.08561        -0.032544      0.036011     -0.003447
Li	      8.44920      6.42124      6.40233         0.014155      0.051488      0.017604
Li	      2.18812      6.20960      4.05112         0.022792     -0.019648      0.013887
Li	      2.20565      4.20947      6.23068         0.045304      0.015538     -0.007345
Li	      8.46870      8.26891      8.27695         0.044508     -0.034057     -0.012283
V	      2.05189      2.07154      0.11581         0.043817     -0.078578     -0.138679
Cr	      4.22047      2.21534      2.05160         0.122840      0.097538     -0.366608
Cr	      6.28993      2.15729      4.15597         0.264280     -0.002189      0.099120
Cr	      2.10419      2.13676      4.14122        -0.181869      0.013467      0.160685
Cr	      0.06813      4.19924      4.17278         0.000919     -0.008888     -0.003164
Cr	      6.41579      6.31443      8.30876         0.076910     -0.051829     -0.081190
Fe	      4.18553      6.30694     10.38263         0.097500     -0.165400      0.084310
Fe	      4.19579      6.17992      6.28144        -0.126089     -0.003678     -0.081435
Cu	      6.25119      4.17463      6.34073        -0.061113     -0.045564      0.055059
O	      2.18402      2.11116      2.07622        -0.020278      0.046318      0.102842
O	      4.20406      4.12559      2.08764        -0.005348      0.099255      0.021727
O	      4.21601      2.06226      4.10837        -0.036713     -0.010924     -0.094811
O	      6.40699      4.21120      4.06299        -0.030965      0.010223     -0.127405
O	      6.35230      2.13259      6.18155        -0.021942     -0.026370     -0.119133
O	      8.30999      4.04092      6.17161         0.044881     -0.048135     -0.047326
O	      2.02577      4.09610      4.23971        -0.035030     -0.057155     -0.001761
O	      4.32134      6.39522      4.23478         0.056851      0.041218      0.033031
O	      4.26253      4.27597      6.23437         0.002198      0.000029      0.022000
O	      6.26107      6.25162      6.22029         0.155029      0.072400     -0.004699
O	      6.29626      4.33541      8.49260        -0.010636      0.066039      0.100531
O	      8.34131      6.33338      8.34249        -0.091538      0.003955     -0.020966
O	      2.19423      6.48633      6.23720        -0.014882      0.183182      0.024574
O	      4.13320      8.38840      6.26989        -0.055679     -0.107655      0.118923
O	      4.32166      6.41530      8.30889         0.071259     -0.030522      0.049230
O	      6.27760      8.36695      8.40719        -0.130891     -0.027411      0.159759
O	      6.24200      6.36110     10.36373        -0.031244      0.032667     -0.043871
O	      8.38422      8.48218     10.52078        -0.041458      0.025942      0.025249
