# total energy = -224.63213286 eV
 
CRYSTAL
PRIMVEC
-0.032166 6.300287 6.090526 
6.282853 -0.034523 6.092383 
4.161658 4.174580 0.004199 
PRIMCOORD
36 1
Li	      6.24038      0.00186      6.02204         0.017172      0.009754      0.083271
Li	      4.25020      6.24958     10.19914         0.077797     -0.006085     -0.047839
Li	      6.25923      8.27978     10.21257         0.003966     -0.055104     -0.006031
Li	     10.35572      6.30072      8.13700        -0.048079      0.052433     -0.008620
Li	      8.31114      4.21877      8.11746        -0.012542      0.033296      0.010825
Li	      6.16416      6.32082      4.09457        -0.017751      0.028145     -0.067313
Li	      4.09357      4.26200      4.11051        -0.048316      0.030076     -0.060187
Li	      2.08143      4.14817      6.02451        -0.001535     -0.016436     -0.000747
Li	      6.29619      6.22019      8.15336        -0.032084     -0.026104     -0.011180
V	      4.19849      2.17251      2.12526         0.007621      0.155431      0.079049
Cr	      6.28132      4.16433      2.06838        -0.152803      0.026372      0.056283
Cr	      6.28598      4.16203      5.97729        -0.057988      0.014712     -0.047030
Cr	      0.01876      4.20650      4.06295         0.082340     -0.003409     -0.026977
Cr	      2.04831      6.24855      4.07215         0.014970     -0.034538      0.016687
Cr	      8.31822      8.33636      8.11333        -0.042507      0.074439     -0.020107
Ni	      8.33763      2.10572      6.08667         0.036423     -0.074555      0.038447
Ni	      8.34843      6.20550      6.09720        -0.006276      0.064235     -0.094072
Ni	      4.19479      6.25439      6.06461         0.001291      0.027864     -0.019611
O	      2.31104      2.00632      2.03426         0.046846     -0.012130      0.129435
O	      4.23332      3.98083      2.01919         0.024562     -0.117024      0.016485
O	      4.20922      2.04032      3.88284         0.059726     -0.040526     -0.058493
O	      6.22356      4.15470      4.10131         0.015035     -0.016546      0.111351
O	      6.26281      2.23341      6.11689        -0.015083      0.093420      0.006374
O	      8.24122      4.16236      6.09805        -0.044431      0.018989     -0.006794
O	      1.99391      4.25921      4.04206        -0.003219      0.004299     -0.009178
O	      4.09036      6.34754      4.05018        -0.030787      0.063999     -0.139359
O	      4.23542      4.14173      6.11449         0.056619     -0.036026      0.036975
O	      6.28020      6.07042      6.08844        -0.015412     -0.085649     -0.025423
O	      6.13087      4.18012      8.08579         0.037599     -0.002988     -0.026690
O	      8.31696      6.37479      8.16067        -0.030284     -0.129074      0.041817
O	      2.10047      6.36912      6.14127        -0.079979     -0.110928     -0.012179
O	      4.13868      8.32246      6.17255         0.102991      0.101999      0.029098
O	      4.07468      6.29267      8.12169         0.071045     -0.035497      0.145792
O	      6.14996      8.44151      8.10360         0.075816     -0.036324      0.007415
O	      6.33983      6.16387     10.17995        -0.072845      0.027036     -0.007325
O	      8.40161      8.27950     10.11965        -0.019900      0.012445     -0.114148
