# total energy = -223.09865350 eV
 
CRYSTAL
PRIMVEC
0.011187 6.437272 6.241127 
6.245248 0.029819 6.223161 
4.181577 4.298085 0.001418 
PRIMCOORD
36 1
Li	      4.18203     10.51995      6.14119         0.005618      0.041176     -0.013611
Li	      4.24411      8.51485      8.17065        -0.046508      0.003769     -0.030642
Li	      4.22992      6.46371     10.36205        -0.035362      0.011047     -0.014868
Li	      2.17991      2.28597      4.19920        -0.000886      0.027707     -0.011359
Li	      4.12373      4.25850      4.19363         0.000600      0.014023     -0.009733
Li	      0.08655      4.37156      4.28515         0.016262     -0.052203      0.010570
Li	      1.99162      6.40837      4.27200         0.020347      0.027112      0.044171
Li	      6.06964      8.60057      6.12251        -0.007166      0.038865     -0.044122
Li	      4.19175      6.63266      6.16186        -0.037369     -0.040414     -0.025271
Mn	      4.20160      2.15915      6.18315         0.061252     -0.096790      0.011644
V	      2.13474      6.40251      8.18941         0.088448     -0.076957     -0.233938
V	      4.19672      6.41789      2.29002        -0.049004      0.106293     -0.007663
V	      6.24049      4.34453      6.11836         0.187178     -0.044662      0.122723
Fe	      2.15320      4.24281      2.23781        -0.040067     -0.048996     -0.228451
Co	      2.20075      8.56806      6.17475        -0.267620     -0.120140     -0.086752
Co	      6.24855      8.54695     10.37556         0.067695     -0.120847     -0.086713
Co	      8.34791      8.67295      8.38951         0.090446     -0.057862     -0.056436
Co	      6.16778      6.55210      8.34033        -0.034721     -0.025301     -0.069971
O	      2.00407      2.09573      2.11698         0.175157      0.017372     -0.266127
O	      4.21257      4.45064      2.08042         0.065483     -0.000938      0.008972
O	      4.31301      2.15587      4.27931        -0.048950      0.073390      0.147073
O	      6.25888      4.16617      4.15581        -0.008705     -0.108525     -0.010517
O	      6.20297      2.28079      6.35763         0.100738     -0.046549     -0.025716
O	      8.16037      4.26458      6.32809        -0.015329     -0.119672      0.007376
O	      2.11882      4.29313      4.07950        -0.000299      0.044077      0.221061
O	      4.14913      6.48171      4.01784        -0.018131      0.012947      0.028448
O	      4.42704      4.35078      6.27263        -0.124510      0.032861      0.024364
O	      6.39961      6.34442      6.23177         0.079628      0.072419      0.088958
O	      6.30881      4.21666      8.24978        -0.023394      0.072919     -0.014875
O	      8.42586      6.38341      8.19094        -0.115891      0.117032     -0.068905
O	      2.06014      6.45240      6.40832        -0.001936      0.134015      0.105048
O	      4.12524      8.59362      6.20528        -0.172746     -0.071506     -0.077999
O	      4.07345      6.44906      8.32434        -0.005219     -0.022323      0.033466
O	      6.27896      8.72681      8.22805         0.019384     -0.073023      0.173795
O	      6.23816      6.62640     10.32161        -0.075212      0.110874     -0.034969
O	      8.14315      8.55123     10.38048         0.150792      0.168807      0.390969
