# total energy = -220.10107513 eV
 
CRYSTAL
PRIMVEC
0.022734 6.494520 6.095135 
6.286625 -0.020142 6.135992 
4.192246 4.358923 -0.014818 
PRIMCOORD
36 1
Li	      4.19653     10.82735      6.08023         0.031028      0.018660     -0.019887
Li	      4.21557      2.15324      2.12151         0.012285     -0.022028      0.006788
Li	      2.30995      2.06880      4.17216        -0.013552     -0.015892      0.011180
Li	      4.18507      4.22343      4.16832         0.006123     -0.006411      0.012513
Li	      4.04977      2.38979      6.08512        -0.010133      0.042111      0.026468
Li	      6.27947      4.46090      6.10042        -0.036577      0.048221      0.023331
Li	      6.39267      8.57069      6.10177         0.030022     -0.017160     -0.021728
Li	      4.16000      4.27822      8.06355         0.007579     -0.006458      0.001417
Li	      6.35863      6.65385      8.03953         0.034738      0.001890     -0.008708
Mn	      6.21778      2.18565      4.12378        -0.088787     -0.019980     -0.019123
V	      6.37019      4.37279     10.17534         0.060729     -0.054800     -0.147417
V	      6.36719     10.79690      8.18383         0.012558     -0.098551      0.017665
V	     10.40986      6.44120      8.12592        -0.336930     -0.016079      0.205631
Fe	      8.37624      2.18482      6.14462         0.000503     -0.143381     -0.004617
Fe	      4.33946      6.30490      6.07133        -0.052223      0.106801     -0.051846
Co	      8.37259      6.46404     10.18893        -0.027010     -0.005656     -0.099457
Cu	      4.18608      0.15229      4.21896         0.004292      0.047299     -0.087628
Cu	      8.42520      4.31516      8.10592        -0.025669      0.144787      0.056443
O	      1.99614      2.06163      2.02765         0.071632     -0.023172     -0.003254
O	      4.39693      4.54443      2.03215         0.001339      0.019052     -0.030636
O	      4.33728      2.21880      4.10427         0.018589     -0.071412      0.019907
O	      6.33630      4.36003      3.99074         0.034732     -0.067569      0.030202
O	      6.31061      2.10741      6.17995         0.130336     -0.004190     -0.188019
O	      8.41072      4.12600      6.16609         0.022852      0.109324     -0.139984
O	      2.00646      4.52928      4.00057         0.041843      0.009173      0.049519
O	      4.05211      6.61414      4.00395        -0.029828      0.020145      0.127957
O	      4.19626      4.43363      6.10929        -0.011444     -0.088346     -0.010867
O	      6.22373      6.54137      6.11275         0.056631      0.032784     -0.012656
O	      6.21730      4.05453      8.30161        -0.014333     -0.149161     -0.031346
O	      8.48864      6.47190      8.23127         0.013325      0.026988      0.138980
O	      2.15856      6.58875      6.05800        -0.001012      0.006431     -0.006081
O	      4.13366      8.60916      5.86869         0.033740      0.015854      0.100138
O	      4.03061      6.57373      8.06515         0.045952      0.086675      0.083293
O	      6.26106      8.86522      8.23889         0.020069      0.081424     -0.012810
O	      6.41425      6.30997     10.10672        -0.057548      0.022362      0.009375
O	      8.30037      8.43116     10.20880         0.014149     -0.029737     -0.024745
