# total energy = -93.26071596 eV
 
CRYSTAL
PRIMVEC
2.088386 4.137700 2.049282 
4.080716 -2.033259 -2.023987 
0.009732 4.128827 -4.090589 
PRIMCOORD
16 1
Li	      2.04738      2.05596      0.00901        -0.027480     -0.037503      0.036595
Li	      4.01857      2.11236     -2.02309         0.055329     -0.136479      0.018488
Li	      2.05094      4.09839     -2.01566        -0.058110      0.009071      0.016739
Li	      4.12415      4.07489     -4.01490         0.007196      0.096373     -0.079550
Mn	      0.01309      4.08009     -4.03578        -0.701422      0.218315     -0.396088
Mn	      4.08835      4.12047      0.00195         0.333332      0.275645      0.491187
Ni	      6.11120      4.14088     -2.01280         0.429651     -0.004177      0.064192
Ni	      2.03078      2.04712     -4.02441        -0.127735     -0.120121     -0.322236
O	      4.06881      4.12104     -1.87586        -0.168203     -0.050540     -0.328465
O	      4.07320      2.06705     -4.16114         0.317150      0.020413     -0.102546
O	      4.20992      2.18133      0.02135         0.275318     -0.277336      0.084534
O	      3.92241     -0.08055     -2.00863         0.230474     -0.409822      0.188583
O	      2.17769      4.09916      0.10563        -0.247876     -0.109175      0.291119
O	      2.02991      1.89459     -2.01905        -0.121331     -0.088812      0.274826
O	      2.07221      6.30668     -2.01434        -0.248429      0.313461     -0.127030
O	      1.92422      4.10171     -4.13908         0.052137      0.300685     -0.110349
