# total energy = -222.81063043 eV
 
CRYSTAL
PRIMVEC
-0.005908 6.417015 6.183973 
6.266970 -0.018512 6.197775 
4.167785 4.277066 -0.002890 
PRIMCOORD
36 1
Li	      8.34484      8.55874     12.31888         0.001713     -0.007490      0.105317
Li	      2.15894      6.34748      8.23375         0.057237     -0.036927     -0.008037
Li	      8.34768     10.62420     10.29218        -0.050930      0.058363     -0.040107
Li	      2.11542      2.18083      4.17690         0.067484     -0.000259      0.027024
Li	      4.17410      4.23773      4.18754         0.041391     -0.037531      0.052882
Li	      4.17383      2.15703      6.10769        -0.011780      0.034400     -0.026200
Li	      4.04239      8.50915      4.19966        -0.034983     -0.024844      0.010110
Li	      6.28344      8.50757      6.20932         0.056819     -0.018714     -0.002960
Li	      4.09896      4.37355      8.26841        -0.029151      0.100878     -0.144115
Mn	      4.17874      6.39837      2.12108         0.125673      0.001529     -0.065548
V	      4.18729     10.61881      6.14885        -0.103571     -0.096068      0.154096
V	      2.09292      4.25195      2.16094        -0.060062     -0.130261     -0.111700
V	      6.19303      4.38474      6.12258        -0.180732      0.111066     -0.058988
Fe	      4.18669      8.46418      8.29079        -0.181351     -0.074092     -0.084063
Fe	      6.28884      8.52957     10.30190        -0.427832      0.101838      0.028744
Co	      8.34955      6.46387     10.34999         0.161240      0.249556     -0.148445
Co	      6.26501      6.42395      8.23576        -0.095761     -0.007022     -0.230533
Cu	      4.14023      6.42957      6.10327        -0.040996     -0.024212      0.022936
O	      2.01587      2.26436      2.11278         0.273128     -0.087438      0.036843
O	      4.09115      4.17704      1.99978        -0.024492     -0.040881      0.002630
O	      4.26838      2.14735      4.04579         0.070162     -0.026617      0.104888
O	      6.34500      4.16432      4.32354         0.036149     -0.032112     -0.088194
O	      6.24518      2.09342      6.26263         0.031653      0.032973     -0.335916
O	      8.43890      4.25988      6.33068         0.072697     -0.005406      0.062297
O	      2.06757      4.33307      3.95896        -0.007882      0.222889      0.209301
O	      4.14780      6.42846      4.10667        -0.327797      0.049851     -0.001561
O	      4.33116      4.35013      6.20651         0.145280     -0.127954     -0.014074
O	      6.34566      6.27527      6.16627         0.172349     -0.064532      0.021036
O	      6.37763      4.28663      8.09385         0.077345      0.085999      0.170345
O	      8.44844      6.25114      8.24505        -0.297897      0.168647      0.265281
O	      1.83185      6.43305      6.23458        -0.178085     -0.016961     -0.226997
O	      4.12753      8.67665      6.23049         0.008672      0.240587     -0.086426
O	      4.15833      6.50919      8.08493         0.094946     -0.007322      0.279626
O	      6.21184      8.51838      8.28563         0.040355     -0.007262      0.013099
O	      6.20512      6.44518     10.37638         0.189865     -0.054771      0.041632
O	      8.23917      8.49352     10.27812         0.329143     -0.529900      0.065775
