# total energy = -223.05178656 eV
 
CRYSTAL
PRIMVEC
-0.020271 6.448423 6.299932 
6.239401 0.008659 6.270708 
4.160115 4.280204 0.005159 
PRIMCOORD
36 1
Li	      8.31561     10.66569     10.51069         0.005988      0.026864      0.005886
Li	      6.26969      2.14080      4.26989        -0.072804      0.003562      0.005955
Li	      6.16634      2.32357      8.34660        -0.016894      0.070781      0.015195
Li	      8.16411      4.38555      8.36504        -0.057801      0.023100     -0.023540
Li	      4.11995      4.38306      4.30598         0.017258      0.006748      0.036814
Li	      8.26114      6.48743      6.35127         0.034856     -0.017475      0.029107
Li	      6.21123      4.38837      6.35912         0.008015      0.036493      0.059611
Li	      6.25930      4.22436     10.34794         0.013135     -0.048386     -0.069579
Li	      4.25004      6.29360      6.21852        -0.037654     -0.052393     -0.046907
Mn	      6.25895      8.47865      6.25537         0.096328      0.041156      0.004630
V	      6.19012      0.06280      6.18483        -0.176425      0.093819      0.027593
V	      4.17640      2.15342      2.22950        -0.014879      0.002992      0.036680
V	      6.27350      4.30059      2.20422         0.014810      0.028249      0.151649
Fe	      8.25366      8.64350     12.47928        -0.011802      0.033579      0.076603
Fe	      2.22957      6.40022      4.09782        -0.037273     -0.044385      0.106825
Co	      4.23605      4.25341      8.39000         0.023563     -0.195006     -0.130356
Co	      6.23124      6.32223      8.32706        -0.056091     -0.098929     -0.221544
Ni	      6.13768      6.50092      4.23065        -0.006692     -0.014378     -0.149575
O	      2.18299      2.03046      2.04286         0.050120     -0.028368     -0.105916
O	      4.28644      4.15353      1.94624         0.025915     -0.020639     -0.012985
O	      4.12566      2.18814      3.99629         0.080620      0.015801     -0.075781
O	      6.22575      4.32859      3.97807         0.016559     -0.061692     -0.175436
O	      6.28522      2.01256      6.29651        -0.004779     -0.128743     -0.006425
O	      8.42237      4.16214      6.26464         0.150040      0.023318     -0.012651
O	      2.07219      4.35145      4.28375         0.006468      0.052309      0.068846
O	      4.12368      6.42643      4.16509        -0.039335     -0.049777      0.065983
O	      3.98591      4.28264      6.34916        -0.149100      0.029796      0.007776
O	      6.21881      6.40526      6.23095         0.003806      0.035147      0.248601
O	      6.18191      4.35068      8.36920         0.055727     -0.191838      0.012609
O	      8.23132      6.40487      8.45519         0.151955      0.248341      0.008998
O	      2.01406      6.55089      6.40294        -0.005175      0.051283     -0.026343
O	      4.19199      8.69864      6.43350        -0.014123      0.013675      0.034997
O	      4.09394      6.60687      8.37264        -0.046998      0.035438      0.040817
O	      6.17098      8.68919      8.34806        -0.065555      0.112046     -0.058379
O	      6.29273      6.43752     10.67471         0.086310     -0.039657      0.024059
O	      8.29496      8.49213     10.52489        -0.028095      0.007167      0.046183
