# total energy = -226.54933852 eV
 
CRYSTAL
PRIMVEC
0.041415 6.253222 6.333984 
6.313150 0.012930 6.362061 
4.201011 4.180015 0.016223 
PRIMCOORD
36 1
Li	      2.09223      0.04849      2.12063         0.062924      0.072173     -0.007727
Li	      4.21386      2.08735      2.19737        -0.031990     -0.043404      0.037283
Li	      4.16950      0.06603      4.23061        -0.071388      0.056253     -0.061776
Li	      4.22071      6.24151      2.22817         0.006048     -0.038286      0.032622
Li	      6.33220      6.25665      4.25804         0.031069     -0.014831     -0.053585
Li	      4.16724      2.11763      6.29573         0.041856      0.006882     -0.023688
Li	      4.22911      8.26683      4.23420         0.005869     -0.095713      0.032862
Li	      2.18922      6.24002      4.25702         0.054760     -0.047947     -0.013868
Li	      2.16291      4.16616      6.31835         0.048929      0.047788      0.007612
Mn	      4.23028      4.21112      4.26842         0.013893     -0.070975     -0.131018
V	      0.09223      6.18442      6.29529         0.090679      0.249557      0.145845
V	      2.13283      4.05068      2.14777         0.396679     -0.062312     -0.063395
V	      6.32458      6.27086      8.47075        -0.131487      0.084106     -0.321205
Fe	      6.27157      2.13207      4.24616        -0.054931      0.077748      0.182016
Fe	      8.44318      8.32821      8.53283         0.021955      0.109875     -0.199377
Co	      8.47369      8.33088     12.62058        -0.108450     -0.032231     -0.113230
Co	      6.32477      4.20660      6.34624         0.070346     -0.195706     -0.061916
Co	      4.19657      6.29173      6.30667        -0.112860     -0.028136      0.102209
O	      2.08874      2.25809      2.07081         0.033547      0.132247     -0.036034
O	      4.08608      4.23685      1.95636        -0.038097     -0.053428     -0.166983
O	      4.28215      2.24507      4.22392        -0.052519      0.051488      0.027396
O	      6.22829      4.14960      4.24319        -0.032810      0.101750      0.091398
O	      6.34301      1.96055      6.28002        -0.118331     -0.042539     -0.073794
O	      8.47807      4.20329      6.44142        -0.163395     -0.025385      0.081383
O	      2.27125      4.16768      4.06330        -0.204228      0.021677      0.207100
O	      4.23628      6.14789      4.29547         0.012041      0.024400     -0.030209
O	      4.27233      4.16071      6.52928         0.018264     -0.022206     -0.118153
O	      6.28564      6.26069      6.54080         0.015416      0.118376      0.597163
O	      6.37497      4.22588      8.50811         0.046546      0.161660      0.148348
O	      8.26563      6.19177      8.49457         0.118613     -0.063821      0.059250
O	      2.05726      6.26862      6.38310        -0.153374     -0.032049      0.033591
O	      4.23747      8.52785      6.28403         0.130567     -0.068931     -0.057279
O	      4.37462      6.21607      8.46191        -0.044326      0.058787     -0.083148
O	      6.40788      8.24969      8.53820        -0.036595     -0.254007     -0.073473
O	      6.30844      6.33075     10.58344         0.065159     -0.167326     -0.403123
O	      8.36734      8.36366     10.48184         0.069619     -0.015536      0.306904
