# total energy = -217.89092053 eV
 
CRYSTAL
PRIMVEC
-0.013711 6.365524 6.424868 
6.064724 0.016113 6.395334 
4.070950 4.251769 -0.016765 
PRIMCOORD
36 1
Li	     10.05293      4.33029      6.37469         0.076447     -0.002245     -0.077004
Li	      6.05915      4.28894      2.13210         0.002379     -0.007640      0.028426
Li	      3.96921      2.22819      2.20214        -0.008846      0.002473      0.095155
Li	      6.06193      2.11774      4.36077         0.031133      0.014122     -0.003730
Li	      8.11760      4.14434      8.30741         0.031851     -0.018148     -0.008576
Li	      2.06365      2.11339      4.14758         0.035141     -0.016893      0.020493
Li	      8.14127      6.22061      6.33031        -0.023282      0.021053     -0.015799
Li	      6.16752      4.17839      6.36341        -0.027813     -0.003672     -0.047159
Li	      8.06908      6.41733     10.66914        -0.004817      0.048095      0.008905
Mn	      6.10583      6.40555      8.52788        -0.056323      0.009632      0.005415
V	      4.17975      4.14639      4.24340         0.159807     -0.131537     -0.037309
V	      0.09227      4.24468      4.25484        -0.140842      0.008950     -0.015101
V	      3.98664      6.38097      6.39178        -0.101623      0.038810      0.034185
Fe	      0.08224      2.03999      1.99488        -0.112701      0.004978      0.120098
Fe	      8.05652      8.47594      8.53113         0.097389      0.104139     -0.021030
Cu	      8.07322      2.25473      6.42876        -0.038007     -0.166625      0.025308
Ni	      4.01572      0.08433      4.30307        -0.092487      0.067672     -0.078837
Ni	      6.04933      8.53568      6.47201        -0.017526      0.062736     -0.023939
O	      1.95767      2.07363      2.20184         0.124391      0.032744      0.131089
O	      3.97684      4.32810      2.35213        -0.043114     -0.038779      0.108033
O	      4.02782      2.26295      4.29392        -0.002463      0.106376      0.046873
O	      5.96419      4.27790      4.30436        -0.180870     -0.012141      0.062250
O	      6.14057      2.09576      6.46308        -0.207645     -0.029750     -0.105328
O	      8.10685      4.23803      6.26901         0.028893      0.105648      0.127614
O	      1.94352      4.26323      4.39722         0.078563     -0.014090     -0.041514
O	      4.05383      6.40585      4.40151         0.011584     -0.052707     -0.025718
O	      4.04576      4.37904      6.37599         0.078319     -0.014220     -0.073224
O	      5.91287      6.46178      6.55360         0.034050     -0.144595      0.021660
O	      6.06436      4.13924      8.66098        -0.019084     -0.043563     -0.029652
O	      8.07091      6.48744      8.48579        -0.029574     -0.093519     -0.041252
O	      2.14994      6.36413      6.44628         0.048582      0.139521      0.009287
O	      3.98828      8.42643      6.27426         0.057237      0.008571     -0.074869
O	      4.12991      6.29769      8.49458         0.069317      0.025185     -0.059736
O	      6.12037      8.54802      8.51287        -0.045874      0.042209      0.017972
O	      6.07008      6.24152     10.51654         0.099001      0.009100     -0.058778
O	      8.26905      8.54851     10.53497         0.088809     -0.061888     -0.024208
