# total energy = -218.10219698 eV
 
CRYSTAL
PRIMVEC
0.022209 6.386634 6.379691 
6.029072 0.036281 6.365965 
4.046457 4.275742 -0.003102 
PRIMCOORD
36 1
Li	      9.91392      4.30464      6.36591         0.090927     -0.031742     -0.029709
Li	      8.05605      2.37836      6.36257         0.033555     -0.047624     -0.018797
Li	      3.99518      2.15751      2.16938         0.007124     -0.035253      0.002839
Li	      8.08950      4.33144      4.41098        -0.002082      0.002005     -0.068445
Li	      8.08605      4.24084      8.33601         0.006476     -0.005392     -0.006340
Li	      2.09028      2.19862      4.17185         0.016419      0.029690     -0.054199
Li	      8.10467      6.22147      6.30380        -0.043691      0.053019     -0.028598
Li	      8.03930      6.40299     10.59837        -0.003387     -0.036844      0.046464
Li	      8.08825      8.58990      8.55516         0.019500      0.021854      0.071612
Mn	      4.05670      6.41607      6.30032        -0.072810      0.081855     -0.010654
V	      2.03158      0.07572      2.14239         0.020234      0.089526      0.017872
V	      6.11413      8.52400     10.68165         0.110188     -0.119214     -0.014524
V	      9.96711      6.47209      8.50252         0.031707     -0.001094      0.053558
Fe	      2.06065      4.22548      6.35099        -0.050813      0.029711      0.116906
Fe	      6.03122      6.36051      8.58626         0.085692     -0.019925      0.020196
Cu	      6.10914      4.28539      6.37936        -0.021444      0.025790      0.007324
Cu	     10.03626      8.57073     10.66925        -0.084087      0.051213      0.052037
Ni	      3.99990      4.26185      4.19373        -0.033169     -0.010493     -0.049739
O	      1.90028      2.00057      2.09685        -0.090177      0.037448     -0.023544
O	      4.09544      4.40919      2.07483         0.058581      0.027425     -0.068565
O	      4.20947      2.25266      4.23469         0.023027     -0.133658     -0.001500
O	      6.08500      4.21033      3.98991         0.011344     -0.002771     -0.118914
O	      6.03353      2.27666      6.35003        -0.022808     -0.064065      0.035203
O	      7.99970      4.30923      6.37330         0.069372     -0.007727     -0.002939
O	      1.98701      4.22504      4.41050         0.016872      0.004949     -0.060014
O	      4.02994      6.27594      4.08016         0.007748     -0.017986     -0.057768
O	      4.09290      4.45836      6.29687        -0.004858     -0.018688      0.090318
O	      6.03678      6.44763      6.51023         0.013606      0.024081     -0.021179
O	      6.05289      4.26486      8.69080         0.020112     -0.068223     -0.099371
O	      8.14328      6.44414      8.44858         0.048275      0.026166      0.023683
O	      2.09096      6.25198      6.56370        -0.022968      0.031323     -0.032814
O	      4.07654      8.36504      6.29311        -0.001126     -0.054030      0.160126
O	      4.05443      6.43447      8.49674        -0.095169     -0.019256     -0.022691
O	      6.08679      8.54489      8.51799         0.029393     -0.015201     -0.030691
O	      6.06704      6.57643     10.53715         0.022294      0.181205      0.113633
O	      7.95993      8.55996     10.65388        -0.193855     -0.008074      0.009224
