# total energy = -217.72535624 eV
 
CRYSTAL
PRIMVEC
0.032270 6.384727 6.320363 
6.154488 0.038421 6.314376 
4.122021 4.271470 0.006906 
PRIMCOORD
36 1
Li	      6.23623     10.59152      8.44064         0.046279     -0.027804      0.041593
Li	      4.09484      6.39570      2.18712        -0.035189      0.028412      0.007927
Li	      4.07514      4.32602      4.13046        -0.047442      0.073401      0.006292
Li	      6.18706      4.36305      6.31207        -0.039547      0.035656      0.003616
Li	      0.03622      4.19457      4.15950        -0.047579     -0.044364     -0.026065
Li	      2.05803      4.31835      6.30479        -0.036795      0.010966      0.024627
Li	      4.12518      6.32170      6.39691         0.054138     -0.079561     -0.035085
Li	      4.17867      4.39474      8.44347         0.051784      0.036252     -0.014779
Li	      6.16776      6.43982      8.42035         0.054253      0.000445     -0.048606
Mn	      6.20925      2.26384      4.18195         0.216987     -0.014423     -0.022488
V	      2.14733      8.39684      6.31229         0.032436      0.127040      0.176204
V	      8.10373      4.33162      8.41630        -0.348362      0.109889     -0.011769
V	      4.07604      2.40210      6.29070         0.092275      0.223571      0.254520
Fe	      4.18537      8.44770      8.48050         0.004741     -0.080576     -0.038814
Fe	      6.02965      6.33144      4.26101        -0.046290      0.081204     -0.111329
Cu	      4.16875     10.65247      6.34289         0.220448     -0.072110      0.084391
Cu	      4.20173      6.37881     10.48041        -0.121527     -0.146768     -0.178890
Cu	      2.15371      6.31637      4.21174         0.013878     -0.118510      0.019663
O	      2.02706      2.21333      2.07204         0.064316     -0.038363      0.130514
O	      3.93276      4.10129      2.02202         0.002388      0.126888      0.056939
O	      4.01713      2.27622      4.26891        -0.014629      0.067925     -0.056488
O	      6.26315      4.32360      4.17930        -0.023062     -0.127644      0.006105
O	      6.23878      2.34030      6.16055        -0.086214      0.078616     -0.048366
O	      8.29791      4.28037      6.27928        -0.061835     -0.035416      0.063320
O	      2.02342      4.27533      4.06335         0.040536     -0.018372     -0.077994
O	      4.15194      6.30969      4.23549         0.123523      0.041089     -0.050947
O	      4.09608      4.14371      6.38470         0.017084      0.052006     -0.061328
O	      6.28935      6.43889      6.22747         0.012333      0.018055      0.027315
O	      6.31211      4.29033      8.37180         0.243409     -0.005578      0.007707
O	      8.28788      6.26824      8.18860        -0.081888     -0.054437     -0.076958
O	      1.98745      6.50424      6.46613         0.105802     -0.171328      0.041247
O	      3.97873      8.40040      6.43899        -0.155955     -0.120416     -0.067050
O	      4.17879      6.49523      8.52203        -0.011011     -0.002875     -0.000178
O	      6.15535      8.57536      8.59720        -0.017256     -0.024776      0.000737
O	      6.23111      6.58632     10.62292        -0.196534      0.020307      0.124327
O	      8.34889      8.37052     10.68427        -0.025494      0.051601     -0.149908
