# total energy = -219.11159966 eV
 
CRYSTAL
PRIMVEC
-0.009876 6.349188 6.242566 
6.284539 -0.009910 6.242691 
4.184113 4.227273 -0.001173 
PRIMCOORD
36 1
Li	      4.26186     10.44487      6.31681         0.007691     -0.099584      0.047261
Li	      6.23191      4.19570      2.06705        -0.034381     -0.021941     -0.007993
Li	      4.19202      8.49704      8.27743         0.007306     -0.034023      0.007428
Li	      4.18693      6.29242     10.32287         0.026110      0.005808     -0.018313
Li	      6.32600      8.44817     10.37129         0.006425     -0.038560     -0.021221
Li	      2.01873      2.14668      4.10941        -0.000417      0.036328     -0.015557
Li	      4.17482      4.27163      4.09160         0.003069     -0.021456      0.003621
Li	      2.00400      4.30900      6.22742        -0.019814     -0.058675      0.022702
Li	      4.17136      4.30680      8.35104        -0.017368      0.013464     -0.012120
Mn	      2.12148      8.42212      6.24523        -0.007431     -0.024728      0.025259
V	      4.19011      2.15037      6.09020         0.011282      0.094336     -0.017068
V	      6.24974      4.24768      6.10289        -0.044476      0.045088      0.066157
V	      6.20592      6.49239      8.36874        -0.083990      0.115342      0.048204
Fe	      2.21063      4.19284      2.12402        -0.075465     -0.008863      0.017198
Fe	      2.09796      6.31112      4.23750        -0.078743     -0.020585     -0.049153
Ni	      4.20008      6.30955      2.11871         0.002350      0.041244      0.002454
Ni	      4.17011      8.45091      4.16744        -0.003776      0.063266     -0.008415
Ni	      4.13622      6.34149      6.27273         0.061438     -0.079138     -0.016581
O	      2.06447      2.18835      1.95620         0.107844     -0.063201     -0.008834
O	      4.12709      4.26569      2.08405         0.146552     -0.101498     -0.025944
O	      4.17573      2.10194      4.36355         0.042564      0.030780     -0.065227
O	      6.29572      4.24380      4.35028        -0.004235      0.017970     -0.133532
O	      6.23321      2.25583      6.29714         0.081957      0.003427     -0.157179
O	      8.27487      4.34879      6.29323         0.054160      0.008102     -0.031428
O	      2.04667      4.28542      4.09859         0.130812     -0.064776      0.055392
O	      4.10502      6.38309      4.15871         0.081074     -0.135981      0.057729
O	      4.29833      4.12915      6.28645         0.039510     -0.059837     -0.031482
O	      6.33294      6.26573      6.31390         0.062708      0.024969     -0.034700
O	      6.35839      4.31734      8.22670        -0.007187      0.029024     -0.068909
O	      8.33625      6.28849      8.26512        -0.051681      0.062277      0.036688
O	      2.08887      6.28722      6.20769        -0.136854      0.009490      0.080688
O	      4.07726      8.40838      6.22064        -0.057812      0.087183      0.116723
O	      4.31882      6.29729      8.30561        -0.015018      0.005112      0.162224
O	      6.29757      8.25975      8.33329         0.002804     -0.001854     -0.020337
O	      6.33964      6.29236     10.29952        -0.089638      0.100447     -0.021472
O	      8.37184      8.36298     10.54812        -0.147371      0.041043      0.015741
