# total energy = -223.86741913 eV
 
CRYSTAL
PRIMVEC
0.037292 6.246717 6.249595 
6.306729 -0.000310 6.290277 
4.211450 4.197440 -0.009813 
PRIMCOORD
36 1
Li	      4.20522      4.19378      0.08130         0.018193     -0.034059     -0.040433
Li	      4.14690      2.20245      2.06397         0.100764      0.031132     -0.015880
Li	      4.25462      6.20510     10.40138         0.016518     -0.017995      0.074865
Li	      4.22262      6.19969      2.12366         0.019518     -0.013098     -0.078773
Li	      2.32821      4.23514      2.09345         0.021154      0.060974      0.047478
Li	      4.15032      4.26993      4.03544        -0.036534      0.045294      0.084505
Li	      2.14149      6.24434      4.13272         0.021784      0.014879      0.017144
Li	      4.19514      6.27816      6.20917         0.044873      0.017724     -0.058566
Li	      6.32626      6.27444      8.40506        -0.040410     -0.002192     -0.025429
Mn	      2.14562      2.12148      4.11237        -0.055931      0.033106      0.000020
V	      6.38865      4.19410      6.26179        -0.102660      0.056814     -0.010294
V	      6.30846      8.36212      6.25003        -0.039679     -0.065120     -0.087318
V	      8.45438      8.35061      8.38686        -0.029375      0.042017      0.038357
Fe	      6.18576      4.21342      2.04434         0.135821     -0.048924      0.233990
Fe	      6.15693      1.92470      4.21950         0.172830      0.070940     -0.038908
Fe	      0.08851      4.22598      4.16645        -0.095999      0.086450     -0.052175
Co	      2.23757      8.29895      6.27358         0.093414     -0.036268      0.023987
Cu	      8.45540      6.24248      6.32530         0.047533      0.027410      0.028295
O	      2.20445      1.99213      2.15000         0.024951      0.061963     -0.018489
O	      4.30674      4.19871      2.08669        -0.156408      0.010810      0.006958
O	      4.17788      2.04250      4.29625        -0.160486     -0.047837     -0.168998
O	      6.24584      4.07794      4.35775         0.017556     -0.009264     -0.150234
O	      6.47992      2.21701      6.18782         0.080672     -0.069169      0.142250
O	      8.25613      4.24645      6.37102         0.170961     -0.225747      0.002209
O	      2.09043      4.27039      4.20348         0.042853     -0.000639     -0.102168
O	      4.42732      6.45402      4.06552        -0.117058     -0.195689      0.060402
O	      4.20018      4.10786      6.36623        -0.002336      0.038453     -0.102293
O	      6.21245      6.26729      6.12826        -0.123055     -0.062633     -0.024166
O	      6.22104      4.24348      8.20062        -0.009213      0.033053      0.136397
O	      8.42991      6.46628      8.29306        -0.005206     -0.117467     -0.022422
O	      2.17060      6.14927      6.33070         0.034582      0.215238     -0.152906
O	      4.29344      8.38119      6.17011        -0.044498     -0.014957      0.086318
O	      4.08872      5.99256      8.39406         0.014141      0.149174     -0.063813
O	      6.36086      8.34695      8.41267         0.000326     -0.007245      0.039141
O	      6.28595      6.25994     10.42914         0.054483     -0.052193      0.077662
O	      8.51426      8.28878     10.37614        -0.114077      0.025064      0.113287
