# total energy = -223.51235457 eV
 
CRYSTAL
PRIMVEC
0.007822 6.289263 6.409095 
6.231681 -0.009592 6.426043 
4.161898 4.210939 -0.013344 
PRIMCOORD
36 1
Li	      4.16490      8.32947      8.54486         0.006002     -0.007999     -0.016965
Li	      2.12188      4.21527      2.31160        -0.003285     -0.009366      0.059564
Li	      2.01487      2.26075      4.28913        -0.025790      0.046202      0.024041
Li	      3.98229      4.26149      4.31458        -0.048391     -0.004295      0.010403
Li	      2.13079      6.14719      4.24851        -0.042439     -0.027239      0.026258
Li	      2.09726      4.19322      6.20067        -0.035306      0.018025     -0.070667
Li	      4.17426      6.30089      6.36524        -0.014994      0.028300     -0.015209
Li	      4.12528      4.23228      8.51796        -0.018801      0.036218      0.008372
Li	      6.21898      6.31857      8.53661        -0.024246      0.017331      0.012761
Mn	      2.12953      6.28097      8.56690         0.103516     -0.005206     -0.099984
V	      6.24773      8.35983     10.63051        -0.007270     -0.081649     -0.093642
V	      6.15764      4.30318      6.47403        -0.080775      0.227766     -0.193608
V	      8.29601      6.35174      6.46999        -0.102266      0.047069     -0.090724
Fe	      4.22584     10.41495      6.39721         0.081817      0.069171     -0.069489
Fe	      2.15578      8.34107      6.42847         0.037991     -0.045970     -0.082149
Fe	      4.11949      6.30241      2.28890         0.088060     -0.064291     -0.072787
Co	      0.09176      4.16286      4.25894        -0.211541      0.194098     -0.211424
Ni	      4.16306      6.28531     10.64816         0.054960      0.000556     -0.064234
O	      2.02850      1.99515      2.03125        -0.022714      0.026848      0.031915
O	      4.27836      4.26772      2.02280        -0.029618      0.024894      0.040289
O	      4.35154      2.07319      4.41154         0.066676      0.039113      0.042638
O	      6.26147      4.06946      4.48328        -0.090138     -0.022663      0.054314
O	      6.27338      2.08036      6.36750        -0.037089      0.025784      0.031382
O	      8.32962      4.22192      6.35179        -0.029005     -0.017949      0.086756
O	      2.01933      4.18287      4.24498        -0.016397     -0.009480     -0.033801
O	      4.15501      6.38770      4.16754         0.066212      0.058624      0.137755
O	      4.24310      4.12003      6.39363         0.050788      0.000254      0.012433
O	      6.25549      6.17522      6.42187         0.014654     -0.097932      0.002739
O	      6.26881      4.09256      8.29529         0.032330     -0.024248      0.168900
O	      8.40068      6.29382      8.40984        -0.071300     -0.001809      0.009422
O	      2.03450      6.35597      6.36864         0.041308     -0.023603      0.032647
O	      4.10205      8.47979      6.37958         0.092490     -0.167032      0.226689
O	      4.03516      6.29744      8.63122        -0.049835     -0.026279     -0.063332
O	      6.23884      8.50887      8.75542         0.025264      0.011274      0.085746
O	      6.22438      6.33476     10.73758         0.127581     -0.123636      0.066470
O	      8.19324      8.41290     10.79541         0.071554     -0.110880      0.006520
