# total energy = -220.25170756 eV
 
CRYSTAL
PRIMVEC
0.013009 6.480543 6.790288 
6.096850 0.101877 6.699260 
4.082514 4.278124 0.049934 
PRIMCOORD
36 1
Li	      1.93964      4.34746      2.47603         0.073726      0.012400      0.009639
Li	      6.00374      6.67209      4.76024         0.061929     -0.053457      0.008173
Li	      4.01009      4.42469      4.72967         0.020312     -0.015613     -0.065221
Li	      8.02165      6.69755      6.87007         0.081922     -0.026901      0.019960
Li	      5.94794      4.56329      6.79075         0.063971     -0.070499     -0.026967
Li	      2.05862      6.27352      4.47784        -0.098809      0.027051     -0.042386
Li	      4.19693      6.29590      6.76652        -0.079575      0.043274      0.025250
Li	      4.07661      4.30844      8.63168        -0.079770     -0.034631     -0.013359
Li	      6.15716      6.39905      8.66119        -0.040777     -0.015393      0.047355
Mn	      4.08007      0.11415      4.52459         0.026671     -0.101104     -0.017280
V	      4.07598      4.31942      0.11864        -0.075903      0.026999     -0.051886
V	      4.08402      2.15889      2.37417         0.041720      0.000724     -0.118265
V	     10.00490      6.64882      9.08810         0.099798     -0.150350     -0.192206
Fe	      2.12269      8.56645      6.83861         0.077777      0.060265      0.050329
Fe	      6.18003     10.75059      9.14937        -0.110220      0.040608      0.050083
Fe	      6.21262      8.70688     11.28794         0.043282     -0.013096      0.068968
Cu	      6.10301      4.37161     11.10184        -0.143437      0.103633      0.091057
Cu	      2.11908      4.18752      6.56989        -0.184157      0.127097      0.033027
O	      4.00744      4.37101      6.70034         0.020412      0.019452     -0.058108
O	      6.11763      6.51979      6.73351        -0.026719     -0.147606     -0.028333
O	      2.04827      2.05227      2.11368        -0.084756      0.065175      0.042045
O	      4.13862      4.28890      2.15576        -0.113764     -0.015123     -0.043444
O	      4.08427      2.25099      4.19973        -0.063443      0.171229      0.059752
O	      6.10886      4.19148      4.37954        -0.157058      0.097366      0.053576
O	      6.17911      2.12729      6.75791        -0.091636      0.083804     -0.039883
O	      8.35158      4.25358      6.79396        -0.157973      0.026926      0.028085
O	      1.88023      4.35714      4.43705         0.128327     -0.036845      0.012170
O	      4.07576      6.45072      4.20425        -0.000540      0.008090      0.088952
O	      6.07476      4.19886      8.87455        -0.007416      0.097511     -0.116740
O	      8.26347      6.49184      8.91869        -0.044932      0.007319     -0.001581
O	      1.96620      6.53119      6.96474         0.158797     -0.099024      0.062521
O	      4.14685      8.75668      7.14579         0.159297      0.002220      0.195395
O	      4.07324      6.70517      9.06594         0.134730     -0.006399     -0.160492
O	      6.10023      8.72917      9.25786         0.058792     -0.080829     -0.033643
O	      6.16864      6.74618     11.56722         0.211332     -0.038689      0.162853
O	      8.22715      8.69840     11.54870         0.098088     -0.115585     -0.099398
