# total energy = -220.32744156 eV
 
CRYSTAL
PRIMVEC
0.046541 6.383278 6.116738 
6.365994 0.037417 6.125713 
4.253300 4.270608 0.016001 
PRIMCOORD
36 1
Li	      8.58923      8.47679     12.06892         0.036783     -0.051990      0.054704
Li	      2.20665      6.39571      8.15203         0.063001      0.078542     -0.012796
Li	      8.58312     10.47995     10.19817         0.040138     -0.000045      0.006117
Li	      6.59595      8.52335     10.18433        -0.084750     -0.026475     -0.000337
Li	      4.29186      6.39251      2.21050        -0.044225     -0.023331     -0.109573
Li	      6.20458      6.42603      4.08937         0.088439      0.025928      0.038676
Li	      4.09629      8.32524      4.14298         0.031370     -0.048896     -0.032682
Li	      2.33613      6.57802      4.09873        -0.029361     -0.054639     -0.080328
Li	      4.22020      6.47047      5.99648         0.009120      0.112966      0.107506
Mn	      6.37821      6.41128      8.28030         0.212878     -0.059916      0.053521
V	      2.12462      4.15322      2.14663        -0.076524      0.294468      0.164608
V	      4.25888      2.12483      6.05119        -0.211140     -0.146505      0.946730
V	      6.38776      4.20376      6.04665         0.051098     -0.125304      0.179355
Fe	      6.48734      6.44010     12.10092         0.129377      0.006500      0.129106
Fe	      4.26894      2.11266      2.13666        -0.044740      0.127699      0.385948
Fe	      2.12566      4.38806      6.05753        -0.091050      0.008685     -0.055128
Ni	      4.26707      4.40238      4.07159         0.033591     -0.193143     -0.131366
Ni	      8.49815      8.61973      8.28058         0.075492     -0.032301     -0.158597
O	      2.23573      2.31672      2.00114        -0.116909     -0.144520     -0.052408
O	      4.10868      4.22728      1.98343         0.063662      0.017536     -0.163030
O	      4.24280      2.29778      4.09861         0.053033      0.094612     -1.283642
O	      6.36665      4.33360      4.28478         0.096618      0.017512     -0.081764
O	      6.25011      2.18784      6.15071         0.236088     -0.013186     -0.186511
O	      8.43358      4.31616      6.20148         0.113799      0.381449     -0.171013
O	      2.17575      4.26776      4.04488        -0.129666     -0.020851      0.080778
O	      4.29456      6.34664      4.10037        -0.002967      0.180555      0.031517
O	      4.31358      4.20839      6.20370        -0.114319     -0.398750     -0.103070
O	      6.48504      6.34749      6.24939        -0.112434      0.103475     -0.083115
O	      6.45840      4.21751      8.04043        -0.010031     -0.044567     -0.113298
O	      8.37476      6.24372      8.12855        -0.118630     -0.098508      0.532137
O	      2.07299      6.33999      6.13804         0.074576      0.083230      0.005677
O	      4.39880      8.63127      6.17865        -0.059287     -0.012364     -0.060231
O	      4.41610      6.50571      8.17712        -0.073420     -0.121402     -0.054120
O	      6.39613      8.59229      8.09068        -0.060910      0.058878     -0.081612
O	      6.36788      6.44534     10.21190        -0.065844      0.032259     -0.101200
O	      8.52659      8.55829     10.17049         0.037144     -0.007600      0.399443
