# total energy = -225.84055225 eV
 
CRYSTAL
PRIMVEC
-0.021613 6.357407 6.275026 
6.484854 -0.018887 6.271996 
4.324779 4.238071 -0.014230 
PRIMCOORD
36 1
Li	      4.30989      6.37997      2.30512         0.009372     -0.025644     -0.047310
Li	      2.04679      4.24998      2.34667        -0.079725      0.011943     -0.051062
Li	      6.22517      6.58486      4.16447         0.007449     -0.026524     -0.003494
Li	      4.06021      4.47158      4.19744         0.009027      0.003393      0.015748
Li	      6.43640      4.24522      6.33595         0.008943     -0.015254     -0.021074
Li	      0.24743      4.01968      4.15125         0.023764      0.028702      0.014609
Li	      2.46083      6.12861      4.17070         0.002329      0.004516      0.020966
Li	      2.19992      4.25802      6.03595         0.012096      0.034941      0.019560
Li	      4.26671      6.30645      5.99950        -0.010083     -0.034854     -0.003563
Mn	     -0.01309      6.34424      6.25824        -0.000432     -0.017760      0.027596
V	      4.32928      2.13245      2.08871        -0.154359      0.285502     -0.039806
V	      8.55348      4.20871      4.20167         0.076398      0.059438      0.234928
V	      8.47257      6.41013      6.29690         0.090492     -0.250119     -0.299568
Fe	      2.13814      8.43364      6.28386        -0.032141      0.235827     -0.150931
Fe	      2.13013      0.00823      2.04960         0.023742      0.010754     -0.028528
Fe	      6.47059      2.10851      4.17549        -0.095110     -0.029880      0.067381
Fe	      4.51839      4.18644      8.34393        -0.089023      0.087545      0.195952
Co	      6.52857      6.29813      8.41721         0.152909      0.070971      0.058174
O	      4.34582      6.34482      4.17575         0.030289     -0.003759     -0.028904
O	      2.29841      2.03748      1.99441         0.053179      0.039314      0.102222
O	      4.47268      4.18712      1.94287        -0.140434     -0.235986      0.133119
O	      4.36788      1.98616      4.19288        -0.098732      0.099399     -0.047004
O	      6.71253      4.23233      4.05535        -0.005471      0.077343      0.077031
O	      6.43813      1.94104      6.27588         0.036883     -0.032827      0.145193
O	      8.56595      4.22800      6.16114        -0.014011     -0.045586      0.124642
O	      2.16106      4.25426      4.18534         0.009005      0.020507     -0.023782
O	      4.38873      4.05131      6.35321         0.009994      0.131341     -0.021584
O	      6.71690      6.31495      6.28597        -0.061899      0.007812     -0.011830
O	      6.39832      4.30990      8.35519         0.097047      0.021847     -0.020528
O	      8.63937      6.45702      8.23706        -0.117480     -0.112125      0.167435
O	      2.18528      6.47897      6.33235        -0.007528     -0.170693     -0.045344
O	      4.17066      8.62532      6.36536         0.044209     -0.042602     -0.141211
O	      4.27500      6.31220      8.45150         0.098533      0.105168     -0.096603
O	      6.36874      8.50583      8.32481         0.075798     -0.190944     -0.182139
O	      6.17811      6.33923     10.52714        -0.100700     -0.105883     -0.055064
O	      8.52405      8.57806     10.46748         0.135669      0.004171     -0.085227
