# total energy = -225.32216310 eV
 
CRYSTAL
PRIMVEC
-0.002392 6.176663 6.209824 
6.578074 -0.001901 6.209775 
4.383984 4.115597 0.000872 
PRIMCOORD
36 1
Li	      2.23946      8.18270      6.29388        -0.002790      0.002279      0.008869
Li	      2.28235      6.17813      8.16095         0.080919      0.018289      0.009398
Li	      4.42137      8.20416      8.20284         0.004916      0.009334      0.035957
Li	      4.40649      6.13682      2.07329         0.017363     -0.033770      0.018851
Li	      4.37833      4.11291      4.18361        -0.003022     -0.010852      0.000305
Li	      8.68494      6.20961      6.17252        -0.041201      0.026941     -0.053296
Li	      6.52700      8.19149      6.28653        -0.055123     -0.040682      0.041186
Li	      4.38636      6.18700      6.27136         0.036480     -0.012373      0.012384
Li	      6.51298      6.23608      8.12739        -0.032458      0.010736      0.003503
Mn	      0.07774      0.02278      0.06014        -0.029534      0.028144      0.073066
V	      2.22169      4.07440      2.01747         0.021316     -0.001779     -0.014881
V	      4.39359      8.19041      4.15921         0.007055      0.008654     -0.012875
V	      2.29201      6.15080      4.24641        -0.029001     -0.042208      0.031600
Fe	      4.33084      0.04764      4.08170         0.029372      0.069227      0.126099
Fe	      6.49006      2.08532      4.10099         0.033510      0.007078     -0.056105
Fe	      6.51401      4.16751      6.26368         0.046044     -0.127311     -0.076736
Fe	      8.64589      8.22661      8.18921         0.062875     -0.055445      0.034005
Cu	      6.59360      6.19485      4.19012         0.042759     -0.062327     -0.065959
O	      2.15238      2.24937      2.18220        -0.033421     -0.066891     -0.103376
O	      4.16021      4.14894      1.96773         0.004563      0.009473     -0.009398
O	      4.55284      1.98185      4.09710         0.045902      0.086300     -0.002757
O	      6.67830      4.08934      4.17683         0.009288     -0.070422      0.015961
O	      6.62422      2.01522      6.11439         0.034088     -0.000481      0.077236
O	      8.64951      4.10634      6.25303         0.010379     -0.007347     -0.031634
O	      2.10015      4.11417      4.05714        -0.066325      0.166395      0.009417
O	      4.22664      6.24904      4.15652        -0.149641     -0.043422      0.023317
O	      4.53729      4.06101      6.29097        -0.054056      0.007901     -0.085879
O	      6.57602      6.09639      6.11879         0.007617      0.175315      0.107953
O	      6.64299      4.12398      8.29257        -0.012027     -0.019694      0.084038
O	      8.71355      6.06646      8.40503         0.004921      0.059042      0.009382
O	      2.19742      6.18511      6.16350         0.006780      0.001490      0.010450
O	      4.38236      8.37454      6.15091        -0.007512     -0.033398     -0.014947
O	      4.39740      6.10069      8.36100         0.041679      0.046988     -0.144131
O	      6.70020      8.21125      8.35227        -0.046995      0.001420     -0.084202
O	      6.61051      6.16863     10.45275         0.004237     -0.035882     -0.024163
O	      8.81502      8.26402     10.26646         0.011043     -0.070723      0.047362
