# total energy = -225.74833210 eV
 
CRYSTAL
PRIMVEC
0.021864 6.156085 6.300165 
6.438565 0.021647 6.300105 
4.290839 4.101712 0.016120 
PRIMCOORD
36 1
Li	      0.08900      6.14116      6.29468         0.031821      0.017641      0.005077
Li	      8.60760      8.20213     12.55740        -0.009217      0.011720     -0.039463
Li	      4.33217      8.19786      8.41061         0.003739      0.003162     -0.034918
Li	      4.36940      6.18246     10.37287         0.009247     -0.005541     -0.029775
Li	      4.29077      6.14306      2.13246         0.002714      0.000972     -0.016683
Li	      6.39961      6.17453      4.22657        -0.022023     -0.027533     -0.001710
Li	      8.58050      6.20035     10.50940        -0.022055      0.036499      0.008634
Li	      8.55606      8.28112      8.47296        -0.054670     -0.017398      0.032725
Li	      6.36619      6.16470      8.43953        -0.026435      0.028075      0.024186
Mn	      8.61772      6.12314      6.33518         0.059782     -0.026695      0.119901
V	      6.51773      8.12135     10.49229         0.226280     -0.058838     -0.147523
V	      2.16495      4.03489      2.15644         0.021207     -0.036345     -0.078667
V	      6.45111      4.12480      6.33444         0.055356     -0.136033      0.019645
Fe	      2.29063      6.24565      8.37212        -0.134894     -0.022291      0.108930
Fe	      4.29487      4.18997      4.15050         0.023952     -0.018806      0.034942
Fe	     10.53864      8.26483     10.48887         0.167493     -0.005363     -0.025151
Fe	      6.34491      8.20348      6.37158         0.014906      0.032110      0.028472
Ni	      4.27039      6.19451      6.33334        -0.030536     -0.002038      0.043674
O	      2.17420      2.15878      2.10462         0.005807      0.049755      0.001033
O	      4.24240      4.09609      2.20171        -0.015884      0.001360     -0.096612
O	      4.42558      2.10548      4.36599        -0.075158     -0.007969      0.004343
O	      6.36945      4.07431      4.16986        -0.054519      0.045483      0.054153
O	      6.50067      2.15380      6.21604        -0.038226      0.096037      0.111286
O	      8.47455      4.16830      6.42227        -0.037983      0.022705     -0.031171
O	      2.22289      4.10424      4.17844        -0.005984     -0.003648      0.064139
O	      4.29132      6.16688      4.27260         0.032941     -0.015478     -0.131850
O	      4.32494      4.04694      6.27712         0.009496     -0.099831      0.022765
O	      6.39313      6.16609      6.32939         0.099529      0.006524     -0.004459
O	      6.58800      4.08895      8.44932         0.060853      0.017942     -0.050247
O	      8.63426      5.96361      8.28773         0.032658      0.035031     -0.028404
O	      2.18457      6.08475      6.39627        -0.080157     -0.008537     -0.104067
O	      4.39336      8.22441      6.18723        -0.011669      0.097905      0.048963
O	      4.19893      6.21010      8.36744         0.102082      0.003338      0.110068
O	      6.45760      8.27643      8.38791        -0.036436     -0.009730     -0.035554
O	      6.44517      6.15724     10.47269        -0.000264      0.005780      0.009773
O	      8.62135      8.21442     10.48177        -0.303753     -0.009966      0.003546
