# total energy = -229.41925909 eV
 
CRYSTAL
PRIMVEC
0.017749 6.345274 6.363675 
6.216927 0.019758 6.361260 
4.145813 4.229809 0.011879 
PRIMCOORD
36 1
Li	      0.06799      6.34627      6.33923         0.049074      0.025142      0.026872
Li	      2.10180      8.42737      6.33976        -0.030371     -0.002768      0.045730
Li	      2.12137      6.31153      8.46408         0.051026     -0.036905     -0.017940
Li	      6.19956      2.15094      4.28980        -0.012292      0.036091      0.034066
Li	      4.19026      4.21131      4.26787         0.050317     -0.023447     -0.019832
Li	      4.19244      2.14917      6.27650         0.006167     -0.024074     -0.060569
Li	      4.14499      8.45691      4.36393        -0.028919      0.024602      0.057128
Li	      4.11317      6.37210      6.38673         0.007364      0.010382      0.031143
Li	      4.11428      4.29601      8.48098         0.000795      0.085603     -0.001826
Mn	      6.11855      4.18021      6.35715        -0.084408     -0.054095     -0.060470
V	      8.34178     10.52676     10.65513        -0.056730      0.007352     -0.019217
V	      8.28611      4.24800      8.49558         0.207354     -0.058914     -0.024625
V	      6.24127      6.36083      8.47787        -0.057916     -0.027666      0.030321
Fe	      4.20331      8.46008      8.40659        -0.231433      0.191978      0.155013
Fe	      4.14860      6.27917      2.09161        -0.030552     -0.008784      0.041554
Fe	      6.20104      6.32380      4.29386         0.013414     -0.024037     -0.164813
Fe	      8.31994      6.56127     10.69093         0.011707      0.025412     -0.065681
Fe	      2.14630      4.30306      6.31628        -0.030462     -0.016060      0.086417
O	      2.06753      2.15304      2.19842        -0.001261     -0.113527     -0.022263
O	      4.06067      4.22982      2.09831        -0.147228     -0.124045      0.042249
O	      4.09047      2.01649      4.14322        -0.040531      0.042681      0.002708
O	      6.28493      4.31101      4.24681        -0.080399     -0.024114      0.080631
O	      6.15997      2.17077      6.52181         0.034015     -0.003131     -0.170027
O	      8.10194      4.23070      6.42087         0.047433      0.020141      0.139601
O	      2.09065      4.17404      4.23595        -0.017912      0.094301     -0.189993
O	      4.15612      6.36093      4.11336        -0.024850     -0.028812      0.067630
O	      4.16900      4.22189      6.35481         0.198108     -0.011786     -0.027957
O	      6.22103      6.36214      6.34707         0.039381      0.015502      0.209359
O	      6.27687      4.27795      8.49568         0.058242     -0.191994      0.000333
O	      8.29747      6.32234      8.62993        -0.134125      0.064475      0.029697
O	      2.12198      6.27386      6.24452        -0.034994      0.080179      0.077890
O	      4.25911      8.46861      6.46734        -0.028220      0.009892     -0.210705
O	      4.23905      6.41179      8.55059         0.050707     -0.070671     -0.037817
O	      6.21515      8.41351      8.37537         0.078425      0.077433      0.016469
O	      6.23340      6.39347     10.53340         0.173911      0.008927     -0.049995
O	      8.29636      8.50589     10.65149        -0.004835      0.024740     -0.031080
