# total energy = -218.68130730 eV
 
CRYSTAL
PRIMVEC
0.000436 6.124251 6.517535 
6.202834 -0.043798 6.561401 
4.115478 4.092384 -0.009262 
PRIMCOORD
36 1
Li	      6.19915      6.00043     12.98738         0.040210      0.013866      0.018779
Li	      4.23713      5.99809     10.88943        -0.018609      0.011953     -0.014317
Li	      6.27931      8.04573     10.88874        -0.026137      0.046366     -0.025342
Li	      4.12242      4.08234      4.41849         0.026229      0.025756     -0.016570
Li	     10.26295      8.20611     11.02581         0.031867     -0.061683      0.016992
Li	      6.05867      8.15436      6.47429         0.025822     -0.022404      0.015203
Li	      4.15481      6.17745      6.57102         0.019787     -0.035428      0.020024
Li	      8.31730      8.10185      8.75673        -0.052811      0.043649     -0.007423
Li	      6.16596      6.05085      8.93678         0.011652     -0.039347      0.072569
Mn	      4.13616      2.03938      6.50124        -0.047083      0.092651      0.007508
Mn	      8.19859      6.08279     10.93599         0.055626     -0.044510      0.068495
V	      2.20947      5.91993      8.65082         0.077365     -0.175969      0.286058
V	      6.17517      2.06926      8.74526        -0.000968      0.141593      0.112071
V	      2.07628      2.08729      4.33421        -0.019268     -0.111206     -0.027174
Co	      8.32636      8.16189     12.99316         0.181148      0.127424      0.036011
Cu	      6.14023      4.09059      6.51136        -0.019515      0.129791     -0.063447
Ni	      4.11448      8.20179      8.63218         0.113121      0.001946      0.039880
Ni	      8.28733      4.08412      8.70940        -0.060201     -0.032102      0.036110
O	      2.03016      2.05621      2.24907        -0.090417     -0.093514     -0.048275
O	      4.21116      4.23889      2.14301         0.049875     -0.030345     -0.031334
O	      3.92584      2.01992      4.23613         0.068363     -0.003170      0.045518
O	      6.14268      4.21162      4.00472        -0.022268     -0.081944     -0.080403
O	      6.17647      2.07172      6.71389        -0.077429     -0.248600     -0.076784
O	      8.15238      4.15969      6.59219         0.083560     -0.058896     -0.037203
O	      2.05366      4.06858      4.28950         0.003018      0.179690      0.023333
O	      4.14758      6.12334      4.21050         0.003563     -0.045370      0.049200
O	      4.19916      3.93426      6.49499        -0.093268      0.000952     -0.049557
O	      6.20172      6.06151      6.25840         0.003385      0.097470      0.000247
O	      6.24167      3.88593      8.82007        -0.127012     -0.015408      0.004058
O	      8.34686      6.08513      8.71130        -0.065230      0.137947     -0.018634
O	      2.07674      6.13832      6.84279        -0.037911      0.048422     -0.275649
O	      4.08720      8.17447      6.64763        -0.135693     -0.084482     -0.147087
O	      3.99708      6.09169      8.71911         0.041922     -0.060129     -0.005057
O	      6.16684      8.25601      8.71998         0.085232      0.096849      0.029794
O	      6.31439      6.09260     10.91144        -0.036099     -0.024982      0.091186
O	      8.24072      7.98969     10.97780         0.008171      0.073166     -0.048780
