# total energy = -92.05150960 eV
 
CRYSTAL
PRIMVEC
0.001867 2.027324 2.106531 
8.257860 -4.095162 4.261338 
2.075318 2.072926 -4.256902 
PRIMCOORD
16 1
Li	      2.12005      2.04695     -0.06492         0.014167     -0.014151     -0.001497
Li	      4.21702     -0.02390      0.12526        -0.015291      0.026671     -0.006292
Li	      4.15754     -0.03806      4.20296        -0.008023     -0.017895     -0.006034
Li	      8.15899      0.01966     -0.01924        -0.003895      0.015416      0.013085
Mn	      8.23861     -4.07507      4.23470         0.017980      0.026710     -0.012308
Mn	      2.14708     -0.02695      2.16610         0.008985     -0.013945      0.008613
Ni	      6.15241      0.00759      2.10284        -0.017084      0.008993     -0.008065
Ni	      8.23513     -2.06462      2.09923         0.068665     -0.064518      0.045404
O	      2.16266      2.15053     -2.11647         0.104268     -0.024796      0.040394
O	      6.18530     -0.09064      0.15768        -0.009952      0.117102     -0.101704
O	      6.21752     -1.94436      1.96128        -0.131479     -0.104573      0.086609
O	      8.38467     -0.03392      2.16331         0.068270      0.106561     -0.101992
O	      8.29494     -2.12855      4.18249         0.006408     -0.077666      0.059477
O	      1.99743     -0.07315      0.15408        -0.005439     -0.015116      0.007169
O	      4.13744      2.15805     -0.16394        -0.005573      0.026014     -0.029419
O	      3.98703      0.00320      2.12170        -0.092006      0.005195      0.006558
