# total energy = -217.28890209 eV
 
CRYSTAL
PRIMVEC
0.013484 6.602402 6.339555 
6.082285 0.042742 6.308215 
4.090137 4.417466 -0.007565 
PRIMCOORD
36 1
Li	      0.04906      6.46770      6.18935        -0.051608      0.037118      0.181449
Li	      4.12038      8.62813      8.38046        -0.060479      0.067881     -0.014105
Li	      4.16634      6.60682     10.47709        -0.128810      0.061188      0.048711
Li	      4.08698      4.31979      4.26450        -0.130019      0.036710     -0.061762
Li	      4.06695      2.20422      6.27492        -0.053482     -0.063307      0.038726
Li	      6.01619      4.64498     10.59387         0.072519     -0.147455     -0.040645
Li	      7.98381      6.73530     10.61157         0.173359     -0.029837     -0.022169
Li	      6.02606      8.88504      6.38601         0.044839     -0.003100     -0.030767
Li	      6.01617      6.77189      8.59564         0.018908      0.069424     -0.048948
Mn	      6.16920     10.91837      8.43052        -0.328038      0.042311     -0.053521
Mn	      2.17087      2.24952      4.20398        -0.086765      0.285436     -0.112299
V	      2.09875      4.52151      2.18466         0.119095     -0.617438      0.202516
V	      4.08968      6.64315      2.15430         0.198583     -0.155520      0.129165
V	      6.06944      4.42735      6.23524         0.269158     -0.076411      0.169262
Co	      6.06336      8.73676     10.52334        -0.465241     -0.482989      0.704013
Cu	      2.13343      8.74763      6.20746         0.027662      0.075774      0.055007
Cu	      4.08678      6.70912      6.34140         0.050832     -0.105359     -0.125093
Cu	      8.09255      8.87575      8.48964        -0.077102     -0.051537      0.202881
O	      4.04652      8.71989      6.23580        -0.123324      0.110470     -0.043980
O	      2.05954      2.39001      2.20856        -0.080412     -0.121860     -0.226029
O	      4.10145      4.64368      2.02409         0.288959      0.182568     -0.021592
O	      4.06537      2.29266      4.28250        -0.386468     -0.109565     -0.075924
O	      6.08445      4.24558      4.25796         0.053146      0.034514      0.003766
O	      6.19450      2.38867      6.37608         0.119708      0.179535      0.487334
O	      7.99014      4.42749      6.51359        -0.144168      0.092706     -0.091714
O	      2.06628      4.45794      3.99934        -0.030141     -0.000127     -0.159318
O	      4.24203      6.63604      3.96098        -0.080063     -0.089698     -0.295102
O	      4.23544      4.48974      6.42666         0.011346     -0.067764      0.005340
O	      6.09551      6.46567      6.12405        -0.188802     -0.098986      0.137092
O	      6.15013      4.32651      8.34880        -0.386646      0.044887     -0.155851
O	      8.25199      6.45971      8.32810         0.020754      0.422884      0.036990
O	      2.10235      6.58364      6.47829         0.118469     -0.093140      0.088854
O	      3.92768      6.66816      8.53563         0.058291     -0.026520      0.057134
O	      6.08076      8.78694      8.56938         0.289042      0.141738     -1.011648
O	      6.06609      6.83323     10.56932        -0.047007      0.246975      0.041539
O	      7.99319      8.77412     10.45486         0.913906      0.208497      0.000688
