# total energy = -221.38893772 eV
 
CRYSTAL
PRIMVEC
-0.020051 6.315607 6.046153 
6.337783 -0.004064 6.030178 
4.243209 4.217810 -0.020912 
PRIMCOORD
36 1
Li	      4.35141      8.38057      8.07424        -0.048726     -0.004407     -0.037644
Li	      4.19005      6.34067      9.95643         0.014779     -0.002258      0.049837
Li	      4.19017      6.30885      2.06661         0.022457     -0.000851     -0.003331
Li	      8.40053      4.27099      8.04556         0.006054     -0.002964      0.004242
Li	      4.24751      4.23726      3.91343         0.012145      0.024084     -0.005651
Li	      8.43266      6.24886      9.94135        -0.035763     -0.012391      0.003895
Li	      6.45919      8.42809      6.13718         0.021182     -0.014398     -0.071151
Li	      4.14651      4.32530      8.08449         0.029184     -0.012320      0.014775
Li	      6.23402      6.29907      8.10288        -0.022374     -0.042772      0.031820
Mn	      4.25226     10.47476      6.05074        -0.096132      0.001590     -0.017211
Mn	      6.30794      4.18729      9.96906        -0.004083      0.001046      0.014249
V	      8.43009      2.12920      6.02737        -0.025136      0.026529      0.109120
V	      2.17658      2.17035      3.98319         0.008891     -0.021759     -0.081887
V	      4.23105      2.22429      6.14781         0.013862     -0.060296     -0.061670
Co	      2.09500      6.31393      8.05571         0.006129      0.031603      0.051505
Co	      4.21171      6.23749      6.08453         0.005235      0.042411     -0.062642
Cu	      6.27527      8.42696      9.97824        -0.019605     -0.086372      0.052897
Ni	      6.34502      4.24461      6.09852         0.085744      0.001614     -0.076164
O	      2.10039      2.01313      1.91329         0.055248      0.001358      0.102247
O	      4.39213      4.22018      1.88589        -0.012173     -0.050289      0.092616
O	      4.19420      2.05474      4.17048        -0.034117      0.041017     -0.082709
O	      6.32602      4.47753      3.94305         0.020081     -0.032251     -0.076431
O	      6.31041      2.15715      5.94770         0.065794     -0.042665      0.054436
O	      8.48344      4.12143      6.06039         0.118238      0.070342      0.024316
O	      2.18697      3.98852      3.98016        -0.008167      0.204670     -0.000808
O	      4.37320      6.43475      4.04039        -0.088186     -0.170199     -0.004371
O	      4.29658      4.12601      6.01775        -0.135759      0.165595      0.017545
O	      6.48704      6.31344      5.95693        -0.152214      0.080944      0.100072
O	      6.30411      4.22896      8.10102         0.009453      0.007057      0.062463
O	      8.49467      6.26840      7.87824        -0.067045     -0.001518      0.177637
O	      2.03607      6.39260      6.11262         0.002526     -0.102315     -0.041524
O	      4.03235      8.37119      5.92457         0.136090     -0.056172      0.096194
O	      4.03794      6.33116      8.01363         0.039624     -0.025792      0.021240
O	      6.32491      8.60159      8.09925         0.031566      0.077071     -0.128902
O	      6.35171      6.11904     10.15317        -0.020864      0.004384     -0.048853
O	      8.32069      8.36043     10.23549         0.066061     -0.039326     -0.280157
