# total energy = -220.60774397 eV
 
CRYSTAL
PRIMVEC
-0.001832 6.300695 6.106177 
6.392829 0.022532 6.081170 
4.280403 4.202394 -0.003933 
PRIMCOORD
36 1
Li	      6.33717      0.07881      6.04963         0.007957      0.041467      0.058492
Li	      4.30592      0.12475      4.08392        -0.009162      0.060336     -0.065885
Li	      6.33459      2.23563      8.11386        -0.000853     -0.033622     -0.050398
Li	      6.33266      6.31958      4.23123        -0.046683     -0.024398     -0.023260
Li	      8.35020      6.35107      6.06153         0.026337     -0.056256     -0.022616
Li	      6.35280      4.38868      6.12111        -0.010337     -0.076238      0.010306
Li	      6.53712      8.13149      6.08748         0.078627     -0.019307      0.029552
Li	      4.52267      6.27057      6.07693         0.029489     -0.008324      0.007552
Li	      6.44661      6.21936      7.96228        -0.030710      0.018161     -0.004735
Mn	      4.33485      8.36026      8.10023        -0.009691     -0.016911     -0.065079
Mn	      4.30584      4.20390      4.15868        -0.007852     -0.042318      0.007873
V	      8.44022      2.28058      6.09977        -0.052706     -0.228853     -0.017193
V	      2.18611      6.29726      8.07844        -0.075218      0.072121     -0.088926
V	      8.49457      6.27592     10.06282        -0.054468      0.128538      0.124859
Co	      6.44972      8.40619     10.13304         0.062254     -0.001529      0.045379
Co	      8.38370      4.21408      8.12164        -0.022432     -0.007775      0.028862
Ni	      4.26890      8.38577      4.12184        -0.035427     -0.024209      0.179389
Ni	      4.35189      4.26704      7.99982         0.010877      0.013071      0.035733
O	      6.44194      6.27616      6.07136        -0.015526      0.062422     -0.060679
O	      2.04328      2.01432      2.01773         0.012853      0.129368     -0.018919
O	      4.33719      4.05761      2.13231        -0.084558      0.058955      0.024724
O	      4.50662      2.13118      3.96226         0.169981     -0.014048     -0.005029
O	      6.44034      4.09804      3.86467         0.003595     -0.058700      0.143191
O	      6.54788      2.11638      5.93922        -0.148314      0.018287     -0.039042
O	      8.55983      4.06406      6.10127         0.001810      0.347627     -0.032568
O	      2.06094      4.31769      4.10800        -0.020910      0.003382     -0.019936
O	      4.05657      6.23761      4.11876         0.056143     -0.109731      0.025962
O	      4.29820      4.17081      6.01468         0.016032      0.001794     -0.121274
O	      6.35274      4.22062      8.23287         0.214784     -0.038172     -0.156112
O	      8.56495      6.34866      8.26083         0.005771     -0.083690     -0.152311
O	      2.04582      6.44285      6.18643         0.041967     -0.110329     -0.019248
O	      4.05665      8.40651      6.16433         0.078710      0.015561      0.125672
O	      4.12679      6.39284      8.11936         0.058507      0.027214      0.004721
O	      6.55268      8.53350      8.14930        -0.094101     -0.137185      0.036618
O	      6.54677      6.42735     10.15337        -0.090519      0.076568      0.053200
O	      8.45596      8.33798     10.20481        -0.066227      0.016721      0.021124
