# total energy = -222.52878874 eV
 
CRYSTAL
PRIMVEC
-0.014997 6.288460 6.457817 
6.106677 -0.030986 6.473818 
4.036477 4.169277 0.012932 
PRIMCOORD
36 1
Li	      8.11515      2.13075      6.53526         0.012982      0.056256      0.047454
Li	      6.01906      4.21315      2.18929         0.018545      0.049830     -0.032996
Li	      4.03567      2.13255      2.17148        -0.015301      0.019773     -0.005997
Li	      8.12528      4.12744      4.43807         0.054671     -0.034857      0.165536
Li	      4.03739      6.20381      2.11351        -0.013751     -0.006318     -0.007788
Li	      2.04937      4.15709      2.10717        -0.016877     -0.018778     -0.005006
Li	      4.06784      4.17485      4.15533        -0.056373      0.020825     -0.139433
Li	      8.13615      6.11433      6.53974        -0.042969     -0.003033      0.080263
Li	      6.08477      4.15219     10.73421         0.001261      0.028536      0.007244
Mn	      3.96331      4.19237      0.15244        -0.088122     -0.057599      0.027445
Mn	      4.09070      4.18910      8.62125         0.073160     -0.061922     -0.111014
V	      5.99566      2.13903      4.42787         0.048504     -0.188463     -0.038693
V	      2.03116      6.27487      4.32376        -0.062969     -0.033662      0.154896
V	      2.02952      4.13078      6.39307        -0.020785      0.016392     -0.095457
Co	      2.03693      2.02770      4.14026        -0.020927      0.085842     -0.357706
Co	      6.16668      4.17061      6.48097        -0.228752     -0.176977     -0.154924
Co	      4.04408      6.26377      6.43612        -0.040811      0.007355     -0.046624
Cu	      6.08622      6.23673      8.64213        -0.121129     -0.085375      0.059077
O	      2.00526      2.08677      2.37516         0.005114     -0.011559      0.248104
O	      4.03724      4.19429      2.01919         0.055644     -0.023123      0.138462
O	      4.19286      2.05083      4.25852        -0.099754     -0.018603      0.003809
O	      6.10170      4.10167      4.35745         0.064382      0.070101      0.456392
O	      6.07147      2.13627      6.35098         0.016221      0.574459      0.116161
O	      8.16295      4.12156      6.54026         0.120297      0.043234      0.012552
O	      1.99986      4.24978      4.44434         0.032051     -0.108872      0.065618
O	      3.98578      6.31588      4.48258         0.146496     -0.009778      0.035724
O	      3.92732      4.27426      6.42393        -0.106899      0.047134     -0.038298
O	      6.01334      6.30780      6.19860        -0.046323     -0.392739     -0.057588
O	      6.01114      4.25194      8.59136         0.078213     -0.086151     -0.384071
O	      8.06614      6.35887      8.74731         0.183745      0.163789     -0.247486
O	      2.05065      6.16621      6.44430         0.037446     -0.075310      0.036534
O	      4.18026      8.23270      6.52614         0.061120     -0.050730      0.029973
O	      4.11984      6.16961      8.37838         0.002435     -0.075653     -0.062568
O	      6.15364      8.25780      8.58463         0.026959      0.166490      0.076538
O	      6.12112      6.34548     11.04018        -0.064463      0.085089      0.060426
O	      7.94784      8.27894     10.79618         0.006963      0.084396     -0.036559
