# total energy = -225.32477005 eV
 
CRYSTAL
PRIMVEC
0.001804 6.202656 6.318657 
6.219712 0.016133 6.304766 
4.174151 4.153634 -0.017202 
PRIMCOORD
36 1
Li	      8.29749      8.30944     12.55037         0.026857     -0.024781     -0.029411
Li	      4.09274      2.12076      2.16972        -0.031565      0.049372     -0.024963
Li	      6.27914      8.26682     10.54265         0.021263     -0.029323      0.016270
Li	      2.13034      4.08283      2.15794         0.031409     -0.026934     -0.037390
Li	      2.16695      2.18624      4.11726        -0.044993     -0.003550      0.060459
Li	      4.05136      4.02787      4.14937         0.042174     -0.039429     -0.036612
Li	      4.15953      8.31152      4.24529        -0.001470      0.034555      0.072883
Li	      8.27460      6.25892     10.50697        -0.034650     -0.003141      0.042655
Li	      8.34565      8.29887      8.50632         0.018453     -0.005149     -0.001079
Mn	      4.16785      6.18500     10.49610         0.113819     -0.158016     -0.166783
Mn	      4.15349      6.19907      2.18117        -0.018909     -0.122286      0.118009
V	      6.25331      4.09053      6.21730         0.007383      0.000576     -0.198861
V	      4.11757      6.27302      6.17063        -0.140491     -0.103644     -0.118486
V	      6.29961      6.27165      8.45228         0.005959     -0.036708     -0.000151
Co	      4.15395      4.12033     -0.00011         0.030376     -0.017863     -0.123966
Co	      6.23627      4.16669      2.13786        -0.010272      0.077277      0.038012
Co	      4.16091      2.08230      6.23726         0.059391     -0.021368     -0.002390
Co	      2.07687      4.14890      6.22502        -0.023418     -0.237373     -0.097725
O	      1.86802      2.04426      2.19537         0.031895      0.004005     -0.055475
O	      4.18274      4.21861      2.08370        -0.053846      0.056804      0.297877
O	      4.15046      1.92557      4.20254         0.018856      0.033110      0.085938
O	      6.25671      4.13973      4.35817         0.024456     -0.006905      0.191423
O	      6.21987      2.15543      6.31851        -0.056373     -0.120407      0.023407
O	      8.24695      4.16331      6.31775         0.113361      0.003180     -0.047268
O	      2.08313      4.14603      4.41344        -0.009789      0.169740      0.299572
O	      4.13771      6.26180      4.38535        -0.011709      0.014871      0.122187
O	      4.22819      4.23931      6.27679        -0.041376     -0.078953      0.037521
O	      6.15784      6.14920      6.38028         0.087882      0.073924     -0.051812
O	      6.25277      4.25066      8.22051         0.000473     -0.050058     -0.012246
O	      8.32770      6.24063      8.38414        -0.084562      0.001161     -0.028080
O	      2.16138      6.18848      6.38008        -0.071308     -0.031098     -0.115437
O	      4.23155      8.22350      6.31214        -0.037594      0.265105      0.120934
O	      4.26109      6.22141      8.26914        -0.052278     -0.004735     -0.142052
O	      6.28762      8.12567      8.20887         0.022487      0.168748     -0.167251
O	      6.20270      6.21625     10.35575         0.057190      0.010708     -0.057333
O	      8.31537      8.45371     10.47272         0.010917      0.158584     -0.012377
