# total energy = -216.40852120 eV
 
CRYSTAL
PRIMVEC
0.027291 6.001461 6.459769 
6.260003 -0.018221 6.505270 
4.171094 4.029391 -0.010202 
PRIMCOORD
36 1
Li	      8.36238      7.97310     12.93392         0.063531     -0.016760     -0.006980
Li	      4.28948      7.97655      8.69034        -0.079632      0.037158     -0.022497
Li	      6.21370      8.01785     10.59993        -0.026614      0.064903     -0.011362
Li	      4.17082      3.96478      4.47534        -0.004934     -0.037700      0.062531
Li	      4.12392      2.03672      6.40072        -0.009928      0.025198      0.036230
Li	      0.10031      4.01752      4.33620         0.006198     -0.003515      0.026629
Li	      6.35123      8.00164      6.53479        -0.015445     -0.007118      0.025264
Li	      4.23381      5.98927      6.50264        -0.018237      0.086050      0.038863
Li	      4.06653      4.01607      8.53516         0.015776     -0.029808     -0.014315
Mn	      6.19097      4.00775      6.50279        -0.138484      0.107761      0.074785
Mn	      2.17013      6.07083      4.30748        -0.040684     -0.018260     -0.033569
V	      4.19697      9.90146      6.38218         0.022425     -0.387457      0.043155
V	      8.28189      3.96652      4.32388         0.012152     -0.091529     -0.044222
V	      0.06586      2.03094      2.15213        -0.175728     -0.124088      0.092736
Cu	      2.16647      5.91583      8.57394        -0.007107      0.081338      0.010337
Cu	      6.24247      6.09739      4.37163         0.071727      0.038585     -0.048550
Ni	      2.16289      4.00037      2.15788        -0.000573     -0.011099     -0.104649
Ni	      6.22430      6.06763      8.62582         0.078062     -0.091973      0.088491
O	      6.26591      8.02796      8.59684        -0.006146      0.041299      0.022144
O	      1.96633      1.93236      2.10396         0.061958      0.023988     -0.158840
O	      4.23092      4.07451      1.95956         0.095439     -0.071928     -0.122224
O	      4.03620      1.82470      4.36218         0.146860      0.032731      0.038186
O	      6.28706      3.95807      4.59156         0.007370     -0.011449      0.113249
O	      6.21672      1.99636      6.68080         0.074425     -0.035226      0.102108
O	      8.35129      3.99687      6.45048        -0.016185      0.017778     -0.043140
O	      2.15036      4.12205      4.19917         0.017564     -0.067768      0.066979
O	      4.29272      6.07432      4.12928        -0.230104     -0.014823     -0.244170
O	      4.35532      4.00923      6.49716         0.086044     -0.004115     -0.036416
O	      6.26125      5.89388      6.60362         0.013941     -0.087443     -0.024618
O	      6.35904      3.97832      8.49576         0.049820      0.068129     -0.064508
O	      8.51467      6.03239      8.81279        -0.044465      0.032956      0.110415
O	      1.96711      6.02861      6.23012        -0.021472      0.007063     -0.041316
O	      4.17402      8.14886      6.43816        -0.007532      0.323800     -0.042213
O	      4.13629      5.98021      8.83180         0.048296     -0.004043      0.072781
O	      6.15107      6.04133     10.88451         0.010024      0.017227      0.022645
O	      8.36960      8.07982     10.82670        -0.038342      0.110139      0.016061
