# total energy = -216.32839981 eV
 
CRYSTAL
PRIMVEC
0.013361 6.135293 6.282979 
6.502344 -0.006936 6.302670 
4.324680 4.092163 0.006246 
PRIMCOORD
36 1
Li	      0.17810      6.15159      6.27632        -0.034295     -0.022522     -0.017954
Li	      8.61187      8.06375     12.51427        -0.028250      0.115004      0.036875
Li	      2.14008      6.13066      8.19037        -0.055588      0.060235     -0.023644
Li	      4.42233      6.10903     10.47620         0.034686      0.075920      0.027832
Li	      4.41497      6.08589      2.16655         0.058934     -0.028980      0.023616
Li	      2.20667      4.03541      2.20445         0.025388     -0.037656      0.012355
Li	      6.37014      6.18124      4.20890        -0.024235     -0.035213     -0.024887
Li	      4.33999      8.13035      4.18138         0.009683     -0.000896     -0.008812
Li	      4.12255      6.13245      6.20826        -0.075672     -0.013576     -0.037671
Mn	      6.53153      8.17421     10.45114        -0.302128      0.173544      0.015050
Mn	      4.31982      4.13522      4.23395         0.011518      0.045940     -0.163366
V	      4.07986      8.16765      8.09400        -0.294782      0.036823      0.103047
V	      8.74213      6.07447      6.47903         0.127115     -0.037035     -0.071124
V	      6.59554      4.08071      6.43380         0.053836     -0.109413     -0.121849
Cu	      2.12783      4.14353      6.25030        -0.060225     -0.028034     -0.186226
Cu	      4.30347      4.20881      8.40552        -0.073210      0.097215     -0.013297
Cu	      6.48904      6.16569      8.40639        -0.024446     -0.172009      0.043841
Ni	      2.20589      6.14377      4.20134         0.015099     -0.014362     -0.193893
O	      2.13400      6.08622      6.21535        -0.043492     -0.016459      0.103877
O	      2.31867      2.05220      2.11511         0.057921     -0.024538     -0.034348
O	      4.35821      3.82458      2.12872         0.051623     -0.092619     -0.113664
O	      4.49082      2.14147      4.41332         0.105484     -0.038836      0.055164
O	      6.36154      4.03196      4.43461         0.098559     -0.021271      0.074224
O	      6.45470      2.09473      6.37971        -0.011450      0.037083     -0.017703
O	      8.52599      4.15438      6.25274        -0.061041      0.085993      0.039456
O	      2.34551      4.08520      4.28294        -0.075451     -0.095753     -0.011305
O	      4.32437      6.03524      4.16966         0.035701      0.053456      0.009166
O	      4.54438      4.04848      6.45525         0.248028     -0.035446      0.245719
O	      6.72392      6.11025      6.35104         0.133189      0.074342      0.002351
O	      6.53970      4.13872      8.28543         0.111727      0.055440      0.092989
O	      8.81598      6.06806      8.27098         0.154194     -0.072830      0.107003
O	      4.15029      8.17451      6.35320        -0.082870     -0.020079     -0.136553
O	      4.27619      6.38547      8.43190        -0.104181      0.069273     -0.004129
O	      6.37862      8.15583      8.26799         0.000122     -0.114894      0.115807
O	      6.56680      6.23990     10.37030        -0.082829     -0.038744      0.126609
O	      8.48852      8.20140     10.33414         0.101337      0.090896     -0.054553
