# total energy = -215.73264858 eV
 
CRYSTAL
PRIMVEC
0.023148 6.076119 6.333863 
6.402816 -0.024153 6.379676 
4.273102 4.085515 -0.020370 
PRIMCOORD
36 1
Li	      8.52919      2.04425      6.39544         0.021728     -0.005026      0.007537
Li	      6.52110      4.00728      2.40154         0.008367      0.035729     -0.077127
Li	      8.34406      4.02795      4.34047         0.042271     -0.015311      0.043723
Li	      6.37718      5.94173      4.30361        -0.089884      0.083166      0.017562
Li	      4.41594      4.06525      4.40976        -0.039406      0.064362     -0.046759
Li	      4.31213      2.09588      6.27157        -0.039824     -0.061658      0.021018
Li	      6.21813      3.98192      6.23777         0.001018      0.017334      0.066363
Li	      4.23921      6.00746      6.39366        -0.007379      0.055009     -0.041248
Li	      4.20244      4.09495      8.28948         0.014566      0.016825      0.058931
Mn	      0.05794      6.07254      6.32706        -0.031425     -0.046847      0.112306
Mn	      8.55170      4.03800      8.40104        -0.057490     -0.039679     -0.078492
V	      4.22524      2.01796      2.34089        -0.183323      0.011056     -0.018294
V	      8.63695      6.17000     10.53030        -0.144048     -0.069615     -0.060385
V	      6.36136      6.06930      8.29790         0.054005     -0.211179     -0.143031
Cu	      6.40051      2.08842      4.33617         0.044725     -0.230170      0.024851
Cu	      0.07568      2.02436      2.05497        -0.026052     -0.075865     -0.082288
Cu	      0.04047      4.05946      4.23149        -0.067822     -0.209750     -0.024339
Cu	      2.24221      4.06555      6.35246        -0.080176     -0.158365      0.000732
O	      8.73832      8.00299     10.50956        -0.034484      0.095442      0.104479
O	      2.28234      2.13560      2.06369         0.201917      0.034144     -0.033970
O	      4.09803      4.06789      2.17480        -0.043961     -0.078702     -0.049277
O	      4.12348      2.00182      4.10404        -0.014714      0.001673      0.063924
O	      6.40563      3.98819      4.30767        -0.017876     -0.036394      0.065455
O	      6.45628      1.90512      6.37563         0.030158      0.174782     -0.117627
O	      8.75138      4.05592      6.48298         0.078004     -0.023445     -0.025077
O	      2.01598      4.18769      3.98755         0.046015      0.103885     -0.088758
O	      4.17622      6.13795      4.04859         0.244137     -0.001049      0.151961
O	      4.14855      4.05978      6.35433         0.016970     -0.012550     -0.019794
O	      6.40049      6.14606      6.50729         0.014760      0.107207      0.008845
O	      6.59895      4.07806      8.30136         0.067881      0.092823     -0.125640
O	      8.39568      6.00033      8.51342        -0.084790     -0.043054     -0.081821
O	      2.06997      6.04120      6.08694        -0.011027      0.065898      0.116826
O	      4.46153      8.22158      6.54647         0.088678      0.004768      0.156919
O	      4.40528      6.14678      8.47763        -0.009115      0.007827      0.006951
O	      6.29395      8.04455      8.64116         0.107162      0.135314      0.079422
O	      6.55379      6.10039     10.44121        -0.099566      0.211413      0.006121
