# total energy = -93.33229620 eV
 
CRYSTAL
PRIMVEC
2.130576 4.221290 2.090681 
4.163155 -2.074334 -2.064876 
0.009929 4.212237 -4.173227 
PRIMCOORD
16 1
Li	      2.13093      2.13987      0.00937         0.011352      0.023729     -0.031807
Li	      4.18258      2.19856     -2.10567        -0.064774      0.144590     -0.012398
Li	      2.13464      4.26565     -2.09792         0.040830     -0.005720     -0.018303
Li	      4.29247      4.24120     -4.17876         0.024152     -0.104922      0.060691
Mn	      0.00370      0.03438     -0.02726         0.676298     -0.259578      0.438735
Mn	      2.12463      0.06734     -2.08865        -0.245272     -0.180574     -0.435498
Ni	      0.06689      2.16292     -2.12076        -0.389623     -0.012157     -0.026457
Ni	      2.11366      2.13067     -4.18866         0.091363      0.103716      0.247923
O	      4.23487      4.28923     -1.95242        -0.055144     -0.124104      0.353267
O	      4.23944      2.15141     -4.33097        -0.075923      0.155292     -0.013000
O	      4.38174      2.27035      0.02222        -0.216348      0.263468     -0.309398
O	      4.08249     -0.08384     -2.09060        -0.298746      0.374943      0.056717
O	      2.26657      4.26645      0.10994         0.242745     -0.072946     -0.273563
O	      2.11275      1.97191     -2.10144         0.310147     -0.034765     -0.008976
O	      2.15678      6.56407     -2.09655         0.033878     -0.202880     -0.117219
O	      2.00276      4.26911     -4.30801        -0.084935     -0.068093      0.089287
