# total energy = -222.54899039 eV
 
CRYSTAL
PRIMVEC
0.016138 6.338436 6.153383 
6.338100 0.014457 6.154839 
4.206383 4.207780 0.029506 
PRIMCOORD
36 1
Li	      6.30648      0.10752      6.18219        -0.008813     -0.001562     -0.024329
Li	      8.34016      2.17284      6.19503         0.038867      0.002440     -0.003409
Li	      2.04508      0.04358      2.00492         0.033130      0.013610     -0.013804
Li	      6.31450      2.10667      4.23057         0.020733     -0.026721     -0.055632
Li	      2.14686      4.19547      2.01286        -0.011612     -0.006307     -0.032781
Li	      4.33878      2.08596      6.12622        -0.056690     -0.054959     -0.015637
Li	      4.22375      8.43424      4.19798        -0.072602      0.051374      0.039693
Li	      2.12285      4.24683      6.12693        -0.040123     -0.000483      0.042006
Li	      4.22183      6.32950      6.11685         0.002425      0.065097      0.001567
Mn	      8.44464     10.48367     10.35032         0.182612     -0.107619      0.032401
Mn	      6.29821      6.34853      4.16463         0.007376      0.027124      0.041767
V	      4.26320      8.50397      8.11016         0.002723     -0.189423      0.086038
V	      2.12219      6.28571      4.25096        -0.035403      0.386613     -0.109147
V	      4.19375      4.24895      8.14592         0.047992      0.186104      0.110317
Fe	      6.37877      6.32395      8.18147        -0.009831      0.006566     -0.068333
Co	      6.32067      4.20906      6.15941         0.144637      0.011857     -0.060233
Cu	      6.36479      2.12506      8.15784         0.063591     -0.005675      0.022323
Cu	      4.23425      4.19170      4.15951         0.021278      0.009571      0.006659
O	      2.23438      2.12624      2.21494        -0.135168     -0.016510      0.010027
O	      4.26998      4.06731      2.14293        -0.065290      0.195872     -0.060034
O	      4.21923      1.88779      4.00720        -0.055823     -0.034683      0.016307
O	      6.23481      4.24122      4.22676        -0.247387     -0.076003      0.052336
O	      6.33169      2.26313      6.26703        -0.002559      0.004545     -0.084448
O	      8.29158      4.20904      6.08823         0.016659     -0.004807      0.044209
O	      2.22100      4.31282      4.15127         0.011515     -0.203675     -0.072628
O	      4.14077      6.45325      3.99354         0.147811      0.103479      0.126990
O	      4.35572      4.23412      6.18210        -0.076619     -0.098275     -0.234518
O	      6.30550      6.21920      6.11740         0.031129      0.019071     -0.139042
O	      6.25908      4.34469      8.08282         0.166941     -0.007000     -0.007837
O	      8.36821      6.42116      8.32368         0.103226     -0.160966      0.026224
O	      2.13154      6.38146      5.99823         0.001267      0.001313      0.219204
O	      4.20176      8.40209      6.36580        -0.023052      0.005035     -0.237693
O	      4.30219      6.33222      8.30521        -0.079736      0.042718     -0.048442
O	      6.31427      8.35298      8.15325        -0.098529      0.044625      0.040660
O	      6.47191      6.28360     10.20398         0.009958     -0.037530      0.149384
O	      8.43110      8.46647     10.18331        -0.034631     -0.144816      0.199834
