# total energy = -223.54246414 eV
 
CRYSTAL
PRIMVEC
0.032822 6.240956 6.385517 
6.150117 0.024935 6.393009 
4.094040 4.159604 0.022057 
PRIMCOORD
36 1
Li	     10.15597      4.12361      6.41676        -0.081944     -0.037269      0.027723
Li	      4.10837      8.37029      8.43474        -0.022101      0.023677     -0.108498
Li	      8.22670      4.16786      4.35046         0.000273      0.000662      0.039998
Li	      6.20962      8.30137     10.65228         0.007121      0.022515     -0.000276
Li	      8.22946      4.16422      8.47581         0.017375      0.012753     -0.036838
Li	      6.13633      6.24768      4.27091        -0.025777     -0.024164     -0.008629
Li	      8.21859      6.22006      6.41293         0.021761     -0.017795      0.010867
Li	      4.15092      6.31436      6.38841         0.031175     -0.017051     -0.014976
Li	      8.21350      8.33780      8.57793         0.002505      0.013518     -0.051008
Mn	     10.21614      6.28792      8.52902        -0.057791     -0.039110      0.025792
Mn	      6.20595      4.20107      6.36983        -0.182154      0.057801     -0.037837
V	      2.13906      6.21315      8.49436        -0.011877     -0.098981      0.066377
V	      4.11035      3.95075      4.24924         0.069204      0.262237     -0.013353
V	      6.06586      6.28071      8.54057         0.092078      0.104240     -0.051066
Fe	      8.17014      6.31929     10.72288         0.117262     -0.097154     -0.046894
Co	      2.09940      8.32792      6.40920         0.011181     -0.006846      0.017675
Ni	      4.10923      8.33481      4.31692         0.035443     -0.016971     -0.054277
Ni	      6.16363      8.31139      6.41794         0.038743     -0.039330      0.066034
O	      1.99740      1.97169      2.00641        -0.026288      0.080384     -0.032128
O	      4.13866      4.13627      2.26132        -0.023641      0.027372     -0.023382
O	      4.07605      2.20852      4.28077        -0.013891     -0.180669      0.006972
O	      6.08051      4.17563      4.13035         0.002939      0.026360     -0.016596
O	      6.21476      2.18934      6.54690        -0.013854      0.018201      0.080151
O	      8.11620      4.05831      6.39955         0.013603     -0.002295      0.041831
O	      2.11820      4.21797      4.36787         0.056414      0.026534     -0.097788
O	      4.06892      6.18312      4.10504        -0.004499     -0.003989     -0.127780
O	      4.22358      4.22196      6.20926         0.149864     -0.039714     -0.078263
O	      6.21322      6.20649      6.55247         0.012409     -0.111746      0.041278
O	      6.15742      4.30438      8.59742        -0.009471     -0.025147     -0.047234
O	      8.13886      6.29805      8.63325         0.082100      0.054645      0.071404
O	      2.08532      6.31153      6.40694        -0.045343      0.026189     -0.004022
O	      4.04876      8.32978      6.32864        -0.079179     -0.062272      0.178060
O	      4.24367      6.27811      8.55117         0.031166     -0.005489     -0.000920
O	      6.21614      8.33880      8.44383        -0.014210     -0.046054      0.096905
O	      6.20951      6.29190     10.54652        -0.074470      0.037995      0.022219
O	      8.22128      8.28727     10.86830        -0.106127      0.076962      0.058479
