# total energy = -224.29227858 eV
 
CRYSTAL
PRIMVEC
0.006067 6.589975 6.231874 
6.122348 -0.011211 6.248961 
4.067785 4.391630 0.006376 
PRIMCOORD
36 1
Li	      2.08980      6.56589      8.33744        -0.003794      0.020258      0.018321
Li	      4.10661      8.70377      8.32100        -0.000338     -0.019726     -0.006629
Li	      4.06526      0.02700      4.14225        -0.021039      0.015613     -0.014208
Li	      6.06662      2.30010      4.09498         0.002051      0.070096     -0.025297
Li	      4.07839      6.48224      2.06426        -0.010618     -0.031295     -0.001723
Li	      4.12862      2.28490      6.16844         0.069816      0.034027     -0.009748
Li	      6.07174      4.40603      6.25820        -0.017054     -0.022689      0.005251
Li	      4.08261      6.50043      6.34545        -0.019327      0.001589      0.012789
Li	      4.07453      4.53535      8.20438         0.019314     -0.008165     -0.001121
Mn	      6.12171      8.72593      6.30632        -0.007525      0.033973      0.019207
Mn	      6.01930      6.57663      8.31260         0.044745     -0.031901      0.036520
V	      8.06844      2.24954      6.34484        -0.166805     -0.032881      0.037024
V	      8.20302      6.65629     10.39590         0.052128     -0.046202     -0.015356
V	      6.21387      6.37667      4.18713         0.019563      0.025924     -0.027454
Fe	      6.09379      4.40376     10.38225         0.010984      0.031737     -0.023772
Co	      2.07687      4.34836      2.08264        -0.002616      0.085421     -0.068458
Co	      4.09669      4.39892      4.13478         0.018568     -0.061233      0.015772
Cu	      4.05649      4.42620      0.09882        -0.052072      0.124532     -0.012942
O	      2.03769      2.24641      2.07539         0.035780     -0.095167      0.038147
O	      4.05743      4.42145      2.11840         0.044063     -0.045779      0.132331
O	      3.93613      2.17053      4.11691         0.007365      0.062885     -0.012577
O	      6.06666      4.51482      4.13667         0.055190     -0.012158      0.003437
O	      6.28728      2.30321      6.26131         0.050879      0.014261     -0.025430
O	      8.24442      4.19786      6.23276        -0.102955     -0.049409      0.090241
O	      2.04503      4.52420      4.28651        -0.005140      0.008195      0.019342
O	      4.08296      6.74714      4.10255         0.042324     -0.091715     -0.021347
O	      3.96372      4.36388      6.14644        -0.056281     -0.008137     -0.045886
O	      6.09614      6.52701      6.06148        -0.015359      0.032986      0.008735
O	      6.14230      4.57308      8.40981        -0.021231      0.049691     -0.053273
O	      8.07415      6.54120      8.55297        -0.022087      0.025926     -0.017387
O	      2.00738      6.70806      6.11961         0.158192     -0.033607     -0.040400
O	      4.03998      8.68814      6.16311         0.079122     -0.122644      0.052069
O	      4.16839      6.52971      8.34034         0.032385      0.016701     -0.016373
O	      6.12669      8.56760      8.21262        -0.060722     -0.057772     -0.066573
O	      6.21917      6.47007     10.50491        -0.092567      0.055298     -0.015419
O	      8.18176      8.61892     10.51127        -0.064939      0.061366      0.032183
