# total energy = -226.32741684 eV
 
CRYSTAL
PRIMVEC
0.006392 6.259683 6.299331 
6.389789 0.018043 6.287893 
4.262623 4.167986 0.009327 
PRIMCOORD
36 1
Li	      4.21906      4.19586      0.22829        -0.021641      0.000812     -0.103000
Li	      6.14262      4.19684      2.13577         0.043384     -0.005531     -0.006124
Li	      4.24152      2.29798      2.08239        -0.021762     -0.134349      0.014318
Li	      8.44956      4.15335      4.20506        -0.086171      0.032025     -0.057618
Li	      4.34443      6.02692      2.12599         0.044925      0.062688      0.017869
Li	      2.36663      4.12425      2.09527        -0.039820      0.010447      0.054267
Li	      4.27597      4.20835      3.96082         0.044742     -0.008634      0.123077
Li	      6.43319      8.30725      6.31194         0.083760     -0.013824     -0.022342
Li	      4.31889      6.22542      6.31056        -0.007582     -0.005912     -0.010374
Mn	      4.23756      4.23007      8.34918        -0.065986      0.007640     -0.004820
Mn	      6.35200      6.28989      8.32773        -0.040582      0.064635      0.103373
V	      6.20102      2.13917      4.19162        -0.112301     -0.043334     -0.037393
V	      4.31835      8.32520      4.25232         0.056391      0.071812      0.034083
V	      2.15571      6.23289      4.33803         0.067653     -0.079063     -0.090235
Fe	      2.11807      2.19876      0.22087         0.053505     -0.174974      0.019784
Co	      2.13340      2.02659      4.11012         0.112081      0.009415     -0.048953
Co	      8.54789      6.20651      6.33548        -0.025994     -0.035916     -0.028247
Co	      6.39500      4.21653      6.27544         0.021029      0.078878     -0.021064
O	      4.25114      4.17714      2.10661        -0.056449      0.027428     -0.142855
O	      2.16846      2.04982      2.09663        -0.064261     -0.051502      0.372750
O	      4.42682      2.01775      4.21271        -0.161764      0.050037     -0.026460
O	      6.42248      4.03401      4.16084        -0.060106      0.196739      0.174752
O	      6.50067      2.12174      6.15895        -0.028480     -0.048070      0.077722
O	      8.46681      4.14095      6.31487        -0.020584      0.213134     -0.031054
O	      2.00077      4.27252      4.23393         0.022844     -0.186831     -0.012549
O	      4.15465      6.38460      4.14782         0.078359     -0.005808      0.008704
O	      4.33452      4.09892      6.44241         0.001460     -0.018696     -0.011275
O	      6.44468      6.26959      6.14986         0.015081     -0.028604     -0.256019
O	      6.40095      4.32333      8.61056         0.031302      0.016386     -0.175870
O	      8.35908      6.39441      8.51782        -0.010005      0.005437     -0.076755
O	      2.18685      6.33908      6.11483         0.043260      0.069482      0.107847
O	      4.11484      8.37528      6.05822        -0.007992     -0.009825      0.176449
O	      4.45054      6.14349      8.33996        -0.001143      0.041253      0.038373
O	      6.33583      8.26653      8.51771         0.063781     -0.046523     -0.237388
O	      6.54992      6.31091     10.54317         0.004122     -0.105696      0.030911
O	      8.50657      8.28772     10.41580         0.044940      0.044842      0.046120
