# total energy = -219.84671067 eV
 
CRYSTAL
PRIMVEC
-0.009049 6.283492 6.409350 
6.169350 0.002140 6.397607 
4.119315 4.187683 -0.005064 
PRIMCOORD
36 1
Li	     10.26485      4.29413      6.47781         0.032716     -0.027546      0.026248
Li	      1.98901      2.09413      0.08587        -0.004849     -0.020321      0.011763
Li	      4.04313      2.18927      2.12403        -0.012150     -0.030331     -0.052580
Li	      6.16035      2.12066      4.36789         0.034309      0.001014      0.056034
Li	      4.12595      6.19567      2.06663        -0.031137     -0.004733     -0.010408
Li	      2.15300      4.14356      2.07205         0.006848     -0.006522     -0.019582
Li	      4.14353      4.19362      4.16879        -0.002633     -0.011215      0.010609
Li	      6.16285      4.07416      6.42926         0.001744      0.016880      0.059312
Li	      8.23746      6.29769     10.65505        -0.035415     -0.020689     -0.004422
Mn	      6.12171      4.24445      2.14843        -0.082394     -0.026712     -0.050539
Mn	      4.18197      2.08928      6.37803         0.034879     -0.016966      0.036719
V	      4.10614      8.32872      4.29271        -0.023153      0.102956     -0.042632
V	      2.02889      4.25777      6.37839        -0.032793     -0.010062     -0.001126
V	      6.19115      6.28336      8.53408        -0.026150     -0.053658      0.073329
Fe	      8.23609      4.22048      4.35328         0.109214     -0.077481     -0.070873
Cu	      8.24841      8.35087      8.56296         0.018267     -0.050133      0.085965
Ni	      2.03179      2.07911      4.20330        -0.024232      0.086302      0.048599
Ni	      4.11644      6.25724      6.38163        -0.000890     -0.028216      0.002506
O	      2.04506      1.93520      2.14503         0.008721     -0.105760     -0.077232
O	      4.28195      4.13374      2.15058         0.153798      0.058015     -0.014279
O	      4.08732      2.04665      4.41997         0.109874      0.021318      0.109373
O	      6.25349      4.19855      4.08917        -0.077097     -0.099648     -0.175549
O	      6.02056      2.12107      6.39700        -0.126080     -0.038493      0.006958
O	      8.20260      4.32990      6.32432         0.018338      0.112338      0.083582
O	      1.90509      4.18781      4.26995        -0.146549      0.098955      0.018874
O	      4.08922      6.37426      4.33893        -0.110838     -0.015405     -0.116072
O	      4.06666      4.10529      6.36962        -0.011049     -0.146868     -0.222840
O	      6.21210      6.36822      6.39401         0.184344     -0.031020      0.054527
O	      6.08034      4.27287      8.65142         0.172577     -0.000188      0.037684
O	      8.13292      6.21703      8.34040         0.054569     -0.009315     -0.117418
O	      2.08642      6.20506      6.58477        -0.107897      0.128025      0.153305
O	      4.17113      8.31968      6.28873         0.058397      0.090269     -0.026236
O	      4.12451      6.36387      8.55457        -0.100039      0.024040      0.090978
O	      6.27583      8.39982      8.47802        -0.147599      0.102366     -0.086947
O	      6.13853      6.20374     10.59798        -0.017726      0.023692     -0.017698
O	      8.35340      8.45168     10.72620         0.122078     -0.034889      0.140067
