# total energy = -220.27974818 eV
 
CRYSTAL
PRIMVEC
-0.000188 6.169401 6.234400 
6.547715 -0.006165 6.240347 
4.350783 4.102474 0.010099 
PRIMCOORD
36 1
Li	      6.49301      0.02784      6.21660         0.070237     -0.102040     -0.218291
Li	      8.73874      2.07597      6.24678         0.112750      0.037330     -0.086089
Li	      6.50332     10.24738      8.27407         0.155403      0.028075     -0.007178
Li	      8.80325     10.20466     10.46533        -0.027248     -0.040565     -0.000587
Li	      6.60773      8.21404     10.42845         0.135777     -0.055906     -0.020623
Li	      0.06248      1.97359      2.03020        -0.046686      0.085374      0.090469
Li	      4.36745      4.14539      4.12202         0.006026      0.061030      0.150864
Li	      4.29429      8.20402      4.22540        -0.031835     -0.001417      0.097989
Li	      2.20655      4.10640      6.25404        -0.124315      0.027421      0.028368
Mn	      6.55999      4.10448      6.24451         0.010720      0.103938     -0.056950
Mn	      6.50030      6.15866      8.36371        -0.079542      0.033569      0.172683
V	      4.42367      2.16656      2.03789        -0.279376     -0.331719     -0.086395
V	      2.13736      2.08731      4.11228        -0.001284     -0.055022     -0.001755
V	      2.10057      6.21611      4.28926        -0.134023      0.127839      0.306392
Fe	      4.43798      2.08680      6.17137         0.098064     -0.100080     -0.186056
Cu	      2.23576      4.10497      2.05139        -0.113830     -0.078987      0.073869
Cu	      4.29500      6.12046      6.23442        -0.037278      0.200952     -0.024647
Ni	      8.66469      8.23173      8.35404        -0.030978      0.030037     -0.000540
O	      2.29214      2.07301      2.13691         0.110306     -0.086315      0.150102
O	      4.50039      3.94788      2.09549         0.179434      0.058815     -0.035517
O	      4.19296      2.05777      4.10605        -0.055085      0.007703      0.041377
O	      6.51853      4.31245      4.26536        -0.025931      0.022198     -0.002548
O	      6.40781      2.19251      6.22408         0.183152      0.081483      0.067322
O	      8.77684      4.21457      6.29807        -0.094651     -0.210357      0.137069
O	      2.15438      4.02114      4.10769         0.063034      0.023832     -0.111768
O	      4.39766      6.16733      4.21634         0.021453     -0.000586     -0.207615
O	      4.29042      4.08295      6.28859         0.098886      0.114565      0.020965
O	      6.71427      6.10756      6.21289         0.052869     -0.142769     -0.261770
O	      6.41274      4.20281      8.22636        -0.083129      0.388397     -0.182426
O	      8.64880      6.10927      8.38414         0.250699      0.035287      0.028799
O	      2.06940      6.10067      6.06017        -0.060750     -0.006704     -0.205795
O	      4.32058      8.09681      6.38966         0.077403     -0.028540      0.127903
O	      4.44961      6.21255      8.26545        -0.441543      0.254204      0.116821
O	      6.46438      8.13100      8.34320        -0.172909     -0.369924      0.001364
O	      6.69073      6.13719     10.37128         0.233910      0.035604      0.065289
O	      8.71269      8.09384     10.36836        -0.019728     -0.146720      0.018906
