# total energy = -218.84496942 eV
 
CRYSTAL
PRIMVEC
0.023065 6.179522 6.624605 
6.227830 0.020882 6.627319 
4.163727 4.132390 0.001945 
PRIMCOORD
36 1
Li	      4.21555      8.21083      8.87184         0.004244      0.057942      0.040269
Li	      2.18180      4.06560      2.47374         0.048444     -0.048216      0.026246
Li	      4.07841      4.11514      4.66838        -0.024220     -0.017787      0.003231
Li	      4.08647      2.19489      6.64216         0.076030     -0.060194     -0.023180
Li	      0.19910      4.16502      4.45616         0.020596     -0.024197     -0.017479
Li	      2.13078      6.00763      4.42746         0.049933      0.004173      0.071373
Li	      2.25142      4.02392      6.41576        -0.015242      0.027798     -0.012824
Li	      4.23402      6.08049      6.73885        -0.080262      0.017946     -0.006528
Li	      4.09638      4.16851      8.57867         0.001522     -0.036915      0.054604
Mn	      8.30373      2.14633      6.61295        -0.076697      0.021109      0.047769
Mn	      2.12159      6.19921      8.79382         0.033122     -0.002339      0.107297
V	      0.05132      6.15780      6.58973        -0.055500      0.184841      0.009444
V	      6.15136      2.07433      4.35490        -0.124688      0.002278     -0.017857
V	     10.27769      6.37288      9.05554         0.157552      0.148576      0.051839
Fe	      6.24836      6.13708      8.77059        -0.011489     -0.048496      0.106032
Cu	      4.17027      6.15744     10.99344         0.045397      0.057599     -0.029434
Cu	      6.27408      6.21527      4.58095        -0.096727     -0.155751      0.078656
Cu	      6.13660      4.20231      6.59815         0.082927     -0.127336     -0.047656
O	      1.86202      2.17037      1.97899         0.052385     -0.099214     -0.149448
O	      4.26526      4.32912      1.97566         0.080485     -0.038463     -0.086977
O	      4.29483      1.96606      4.39701         0.274056      0.036341     -0.059814
O	      6.07519      4.10043      4.16951        -0.052272     -0.071224     -0.118228
O	      6.12937      2.01111      6.51490         0.073420     -0.088427     -0.107330
O	      8.33451      4.07601      6.48250         0.126573     -0.078673      0.119054
O	      2.14405      3.97142      4.43819         0.008533      0.194189      0.068173
O	      4.16005      6.18815      4.15175        -0.102912     -0.017405     -0.019747
O	      4.22464      4.16348      6.62072        -0.153072      0.004070      0.022340
O	      6.24287      6.13740      6.68131        -0.031186      0.040380      0.017275
O	      6.20136      4.03863      8.93531         0.004434     -0.320668      0.048480
O	      8.51760      6.15645      8.83700        -0.244401     -0.028671     -0.009038
O	      2.07879      6.34484      6.72504        -0.039820      0.086840     -0.071027
O	      4.23978      8.50792      6.63577        -0.060911     -0.083668      0.022032
O	      4.06831      6.19959      8.91499        -0.070055      0.028147     -0.266996
O	      6.26676      8.15128      9.06021         0.027241      0.412722      0.036479
O	      6.39808      6.27478     11.18195         0.077976      0.053278      0.082983
O	      8.13671      8.33627     11.23815        -0.005417     -0.030584      0.029990
