# total energy = -226.54016149 eV
 
CRYSTAL
PRIMVEC
0.005107 6.222465 6.381543 
6.364103 0.035108 6.350815 
4.258857 4.145730 0.007103 
PRIMCOORD
36 1
Li	      2.15998      8.24833      6.36069         0.010617      0.000298     -0.052876
Li	      2.20150      6.24687      8.39234        -0.015170      0.015022      0.000802
Li	      4.20880      6.20597     10.50356         0.005648      0.026220     -0.042129
Li	      0.01674      2.09174      2.14407         0.020636     -0.000973      0.018521
Li	      8.49711      6.29101      6.47992        -0.010468      0.011060     -0.058772
Li	      6.39897      4.20378     10.56325        -0.022842     -0.041289      0.054334
Li	      6.31071      8.28302      6.43290         0.071437      0.007021     -0.055376
Li	      4.37245      6.26964      6.42158        -0.010400     -0.012275     -0.015871
Li	      6.38669      6.20790      8.49356         0.015766     -0.017531      0.013822
Mn	      4.23040      4.22776      4.29282         0.000379      0.062653     -0.025781
Mn	      4.29933      4.16615      8.45641        -0.028666      0.124748     -0.086064
V	      4.23744     10.31555      6.37414         0.047611      0.075626     -0.025421
V	      6.36384      8.26903     10.61364         0.068560      0.006522      0.050722
V	      6.36051      6.26769      4.26898        -0.089561      0.091622     -0.007172
Fe	      4.20842      8.18651      8.43913         0.001246      0.088413      0.037117
Fe	      6.45795      4.23853      6.42985         0.021764     -0.081232     -0.096598
Co	      8.50377      4.20611      8.47747        -0.043199     -0.064046     -0.079747
Cu	      2.08687      6.16758      4.26782         0.065951     -0.004203      0.130405
O	      2.20425      2.16511      2.22101        -0.152489      0.010658      0.062739
O	      4.13115      4.12440      2.02151        -0.003567     -0.005837      0.026487
O	      4.18961      2.10339      4.13498        -0.002281     -0.020233      0.082832
O	      6.45405      4.15957      4.35099         0.031989      0.021086      0.012333
O	      6.32102      2.09209      6.16481        -0.009106     -0.003132     -0.038652
O	      8.56953      4.18085      6.53168         0.006764      0.034021      0.071168
O	      2.12031      4.13199      4.10578        -0.026815     -0.149670     -0.057552
O	      4.55798      6.27826      4.23818         0.233148     -0.000872     -0.006920
O	      4.43077      4.19655      6.38952        -0.056557     -0.034668      0.086008
O	      6.50062      6.23921      6.21995        -0.010966     -0.011466     -0.045016
O	      6.53284      4.18353      8.38731         0.012453     -0.022636      0.146477
O	      8.52409      6.16041      8.63466         0.009728      0.007892     -0.062782
O	      1.83649      6.19541      6.31211        -0.053947      0.015096      0.089514
O	      4.22630      8.37686      6.44734         0.023943      0.034796     -0.120803
O	      4.22700      6.28964      8.43803         0.007613     -0.275125      0.014499
O	      6.25875      8.32859      8.73662         0.063070      0.012169     -0.040317
O	      6.14982      6.32821     10.76603        -0.140640     -0.011517      0.058832
O	      8.29098      8.19163     10.58796        -0.041652      0.111781     -0.038766
