# total energy = -223.73459336 eV
 
CRYSTAL
PRIMVEC
-0.010978 6.219447 6.186642 
6.413942 -0.020273 6.196009 
4.265279 4.141476 -0.002441 
PRIMCOORD
36 1
Li	      6.42292      6.25332     12.32411         0.068401      0.064636     -0.075760
Li	      4.34036      6.15180     10.33378         0.066727     -0.140471      0.127585
Li	      6.41842      2.01190      4.18402         0.041569     -0.056652      0.030465
Li	     10.54587      6.17785      8.26211        -0.164380      0.112124     -0.031956
Li	      8.56008      4.17809      8.20189        -0.107117     -0.007138      0.046054
Li	      6.33724      6.22939      4.11673        -0.061481      0.042786      0.026030
Li	      8.52531      6.20734     10.26470        -0.008564      0.046035      0.015841
Li	      4.22766      6.18466      6.17737         0.009418     -0.001469     -0.081401
Li	      8.56855      8.24243      8.27278         0.058907     -0.105190      0.045179
Mn	      4.24470      4.22608      4.06772        -0.142750      0.385599      0.370150
Mn	      2.12131      4.20586      6.15367         0.107345     -0.082824     -0.094341
V	      4.25949      2.07653      2.09987        -0.286838     -0.147252     -0.059394
V	      6.50343      4.05944      6.12276         0.096264     -0.073823      0.256054
V	     10.61273      8.19011     10.28717        -0.199187      0.056750      0.055568
Fe	      2.26826      0.07565      2.11008        -0.283183     -0.310472     -0.172796
Fe	      6.49055      6.18045      8.33630         0.000086     -0.121348     -0.080433
Cu	      2.11936      2.04558      0.01519        -0.077052      0.135693     -0.078623
Ni	      8.48550      6.17216      6.17488         0.050327     -0.032490      0.063109
O	      2.27944      2.05979      2.00004         0.541426      0.078304      0.411472
O	      4.37953      4.14220      2.15056         0.004159     -0.383475     -0.205003
O	      4.25993      2.24610      4.05725         0.083222     -0.178646     -0.567469
O	      6.46714      4.13125      4.17269        -0.007572      0.012357     -0.264443
O	      6.23880      2.25366      6.19448        -0.049376     -0.156062      0.025940
O	      8.41353      4.07702      6.17730        -0.004501      0.242415     -0.008590
O	      1.93513      4.11594      4.23773         0.224968     -0.048962     -0.215995
O	      4.25796      6.19778      4.09044         0.052708     -0.258611     -0.028976
O	      4.14064      4.13441      6.03709         0.158058      0.021454     -0.099443
O	      6.38915      5.97525      6.26560        -0.177207      0.117311     -0.004655
O	      6.39202      4.13994      8.30757        -0.007701     -0.026753     -0.382321
O	      8.40434      6.21946      8.19184         0.148270      0.017616      0.141370
O	      2.11939      6.29685      6.31635         0.054934     -0.275502      0.197264
O	      4.46754      8.26982      6.18413         0.003044      0.075821      0.670809
O	      4.26643      6.23977      8.29460         0.006634      0.716697      0.010675
O	      6.33793      8.27792      8.15449        -0.110710      0.079273      0.291982
O	      6.40559      6.08116     10.27571        -0.031539      0.162128      0.092205
O	      8.79365      8.21551     10.43497        -0.057309      0.040141     -0.426154
