# total energy = -223.39536592 eV
 
CRYSTAL
PRIMVEC
0.004878 6.673938 6.121756 
6.173358 0.022409 6.104461 
4.118014 4.441932 0.012399 
PRIMCOORD
36 1
Li	      2.14370      6.71059      8.19739        -0.015385      0.014585     -0.022169
Li	      6.26106      8.86587     10.16925        -0.072180     -0.029050     -0.033156
Li	     10.15884      6.83210      8.17871        -0.015103     -0.005479      0.017880
Li	      8.17342      4.54621      8.19882         0.006787      0.013913     -0.019231
Li	      8.17614      6.83041     10.01650         0.002474      0.023427     -0.018144
Li	      6.18518      8.86302      6.11455        -0.008778     -0.001302      0.044955
Li	      4.08281      6.52759      6.20748        -0.039455     -0.007769      0.009073
Li	      8.17246      8.71049      8.20810        -0.003813     -0.007414     -0.022669
Li	      6.20139      6.67136      8.17011        -0.018137      0.014048      0.049488
Mn	      8.24769     11.03298     10.15140         0.128209      0.213274      0.034555
Mn	      8.22356      6.71646      6.17748         0.144356     -0.037755     -0.065863
V	      0.16835      6.70707      6.14584         0.005586     -0.007069      0.054990
V	      4.26852      8.89737      8.18497        -0.021429      0.074408      0.045950
V	      4.02959      4.55796      4.04044         0.123706     -0.108148      0.118844
Fe	      8.18825      2.22908      6.13641         0.122327     -0.139711      0.121811
Fe	      6.15654      4.53770      6.24968         0.045384     -0.117791     -0.367228
Cu	      1.99711      2.25204      4.02429        -0.052546     -0.060316      0.066933
Cu	      6.21738      4.47382     10.09819         0.062905      0.095549      0.138433
O	      2.25711      2.21360      2.05869         0.117294      0.009227      0.243356
O	      4.11382      4.29255      2.03607        -0.020044     -0.049717     -0.022087
O	      4.24585      2.48210      4.08880         0.076434      0.026918      0.105200
O	      6.21871      4.49427      4.15461        -0.034698     -0.042228      0.063304
O	      6.09961      2.11790      6.17255        -0.408735      0.018384     -0.007686
O	      8.25442      4.37652      6.02763         0.022268      0.554944     -0.191186
O	      2.06619      4.29560      4.09704        -0.072288     -0.056258     -0.070453
O	      3.98659      6.31869      4.03366        -0.044136      0.000654     -0.013498
O	      4.16455      4.45749      6.02557        -0.112123      0.005728     -0.110940
O	      6.23016      6.53353      6.04189         0.015357      0.219620     -0.061769
O	      6.16173      4.41963      8.11569         0.058975     -0.081771      0.344442
O	      8.16793      6.68196      8.02865        -0.038097     -0.022686     -0.007091
O	      1.94310      6.75560      6.13198        -0.153739     -0.375910     -0.054316
O	      4.14881      9.13854      6.15722         0.274762     -0.077589     -0.080974
O	      4.15683      6.91817      8.25150        -0.020702     -0.021554      0.042969
O	      6.04908      8.94584      8.13500         0.046678     -0.009961      0.009572
O	      6.07713      6.79642     10.30997         0.004894      0.050622     -0.074805
O	      8.35435      8.90216     10.21760        -0.107008     -0.075825     -0.268494
