# total energy = -215.90230355 eV
 
CRYSTAL
PRIMVEC
-0.004816 6.275570 6.226618 
6.201009 0.012548 6.209292 
4.156230 4.194013 -0.013566 
PRIMCOORD
36 1
Li	      4.15469      4.20729      0.16266         0.035824      0.024872     -0.112410
Li	      6.07946      4.30452      2.12267         0.080797     -0.025474      0.062528
Li	      8.27786      4.21678      4.15678        -0.000066      0.022698     -0.001373
Li	      4.26675      6.07755      2.10657         0.022594     -0.019542     -0.036876
Li	      2.24424      4.11000      2.05657        -0.058083      0.025560      0.008802
Li	      4.13074      4.23197      3.96136        -0.010231     -0.000600      0.098939
Li	     10.31214      8.35283     10.31038        -0.003468      0.041634     -0.073974
Li	      4.12270      6.28228      6.12514         0.010015      0.014689     -0.028659
Li	      8.27024      8.39045      8.31144         0.010102      0.023348      0.001482
Mn	      8.30741      6.23145      6.19976         0.030769     -0.035427      0.040911
Mn	      2.15861      6.29226      4.07705        -0.013842     -0.026845      0.017196
V	      6.19898      4.13630      6.19581        -0.051444      0.050097      0.150551
V	      1.97448      4.26051      6.19265         0.031047      0.007351     -0.014833
V	      6.07818      6.30157      8.30877         0.011539     -0.122357      0.025013
Ni	      2.13915      8.35330      6.28431         0.075743      0.003400     -0.062403
Ni	      4.12018      2.21070      2.15453         0.036746     -0.152327     -0.056860
Ni	      6.23114      8.40538     10.34001        -0.023398      0.047508     -0.018776
Ni	      1.98473      2.13211      4.05045         0.006556      0.014891      0.035497
O	      4.17874      4.15956      2.04394         0.026501      0.155049      0.027382
O	      2.13326      2.07483      2.06060        -0.144450     -0.009920      0.018263
O	      4.13534      2.07253      4.24287        -0.035680     -0.004721      0.068374
O	      6.16146      4.26066      4.34418         0.037325     -0.029777     -0.121138
O	      6.28204      2.21639      6.19779        -0.127346     -0.088048      0.132367
O	      8.17056      4.25651      6.18501         0.059947      0.092329      0.024236
O	      2.06081      4.28037      4.25188        -0.008767      0.070615     -0.047241
O	      4.05018      6.32832      4.08123        -0.097433     -0.035130      0.010104
O	      4.05546      4.01097      6.25076         0.006190      0.039033     -0.023396
O	      6.14930      6.32998      6.23205         0.018162      0.017536      0.079916
O	      6.13723      4.34482      8.05328         0.009475      0.023492      0.132343
O	      8.12854      6.26891      8.29109        -0.007308      0.037841      0.071028
O	      2.14295      6.17975      6.04834        -0.006361      0.016506     -0.018134
O	      4.31758      8.38536      6.25352         0.018249      0.004524     -0.115671
O	      4.30138      6.31996      8.35817        -0.088680     -0.047581     -0.028647
O	      6.23514      8.32207      8.23104         0.077688     -0.008891     -0.093734
O	      6.36381      6.32530     10.24742        -0.032955     -0.103290      0.031169
O	      8.28152      8.22917     10.43303         0.104246     -0.023042     -0.181978
