# total energy = -209.86150310 eV
 
CRYSTAL
PRIMVEC
0.003265 6.190416 6.133696 
6.169287 0.028764 6.108102 
4.154087 4.150706 -0.021546 
PRIMCOORD
36 1
Li	      4.10710      4.14226      0.03250        -0.049301     -0.036449     -0.027302
Li	      8.21162      2.16004      6.17732         0.013440      0.057803     -0.027154
Li	      4.06342      2.14598      2.05345        -0.114050      0.079987      0.008343
Li	      8.24986      4.16724      4.11746         0.056021     -0.077592      0.007516
Li	      0.08155      2.02842      1.94275        -0.041700      0.060029      0.009968
Li	      2.10399      2.04048      4.00810        -0.019302      0.034532      0.059412
Li	      6.26097      4.09743      6.07466        -0.048186      0.026388      0.123596
Li	      6.17130      4.20105     10.19667        -0.033041      0.041610     -0.102803
Li	      6.20592      8.30363      6.14635         0.088649      0.002484     -0.021519
Ti	      4.19692      6.39842      6.14270         0.095394     -0.044975     -0.106768
Mn	      2.05755      6.18748      4.10904        -0.050821      0.177432     -0.054137
Co	      6.17374      2.10129      4.04617         0.268385     -0.137110     -0.191052
Co	      2.06647      4.02722      2.01877        -0.253902      0.226561     -0.124599
Co	      4.11047      4.11418      4.07632        -0.031606      0.071982     -0.141838
Co	      4.18313      4.14915      8.08528        -0.371311     -0.188068      0.904589
Co	      6.21640      6.23660      8.13722        -0.060869     -0.252997      0.023374
Cu	      1.97230      0.10211      2.02590        -0.039532     -0.321722     -0.106012
Cu	      4.15598      2.02278      6.08165        -0.101342      0.235959      0.029140
O	      4.17001      8.19115      6.07994        -0.005506     -0.238511      0.086862
O	      2.02308      2.06762      2.07113         0.294456      0.530608      0.093137
O	      3.94005      4.15908      2.17412        -0.035366     -0.109997      0.071327
O	      4.23877      2.18809      4.07182        -0.017970      0.060300     -0.042808
O	      6.04770      4.03964      3.96984        -0.092993     -0.018357     -0.251634
O	      6.13198      2.06628      5.93872         0.017563     -0.000781      0.076278
O	      8.27099      4.22824      6.20348        -0.005728     -0.435593      0.219533
O	      2.14358      4.22020      4.01184         0.076144     -0.181301     -0.214475
O	      4.02880      6.09239      4.18225         0.014144     -0.068234     -0.028115
O	      4.12853      4.11847      6.14159         0.003546      0.057630      0.089633
O	      6.14579      6.22057      6.18160         0.012764      0.050025      0.010051
O	      6.23464      4.28834      8.18014        -0.517446      0.158958      0.041769
O	      8.15466      6.26038      8.12145         0.161952      0.611115     -0.169442
O	      2.19433      6.19739      6.18661         0.013176      0.043334      0.345953
O	      4.29692      6.14576      8.12356         0.025177     -0.851581      0.107437
O	      6.27224      8.21326      8.23330         0.777091      0.175194     -0.107277
O	      6.29360      6.31117     10.07769        -0.086091      0.123330     -0.013703
O	      8.16493      8.19807     10.06628         0.058159      0.138005     -0.577280
