# total energy = -207.81576321 eV
 
CRYSTAL
PRIMVEC
0.058718 6.275745 6.083202 
6.211768 0.076732 6.063921 
4.190409 4.220918 0.002386 
PRIMCOORD
36 1
Li	      6.36894     10.44929      8.15104        -0.091510      0.091451      0.068814
Li	      4.31869      8.37393      8.15062        -0.098320      0.088701      0.106106
Li	      4.24360      6.30881     10.05106         0.012042      0.019494     -0.086830
Li	     10.24848      6.45269      8.14709         0.125887     -0.188111      0.005023
Li	      8.26475      4.43480      8.10726         0.160821     -0.089550      0.066898
Li	      8.30199      6.39501      9.96630        -0.057897     -0.025499     -0.020455
Li	      6.29328      8.43621      6.11363        -0.002818      0.010674     -0.025346
Li	      8.35494      8.33453      8.16260        -0.065168      0.047884      0.057506
Li	      6.37782      6.36707      8.17783        -0.082436      0.076245      0.103901
Ti	      4.11069      6.33920      6.18725        -0.195944      0.087548      0.757510
Mn	      6.28624      4.25115      6.13615         0.094272     -0.134953     -0.209807
Co	      4.21060      4.19402      0.08061         0.050032     -0.000836      0.367993
Co	      2.09755      2.10179      0.04226        -0.235176      0.239032      0.176996
Co	      6.33456      8.41092     10.08333        -0.118812      0.097587     -0.095268
Co	      2.09013      2.15602      3.81767        -0.154788     -0.003318      1.021168
Co	      4.12390      4.24500      3.85670         0.122013      0.028397      1.090470
Ni	      8.30398      6.39588      6.13739         0.122479     -0.052770     -0.220527
Ni	      6.23713      4.29700     10.01348         0.069921      0.095702     -0.039859
O	      8.32590      6.38066      8.02967        -0.073149      0.096295      0.137416
O	      2.13418      2.06216      2.02932         0.175188     -0.210844     -0.406373
O	      4.19786      4.22158      2.05806         0.025172     -0.073375     -0.559146
O	      4.26234      2.20784      4.12019         0.083851      0.015877     -0.223540
O	      6.22056      4.12656      4.13901         0.001615      0.040953      0.051642
O	      6.34009      2.25676      5.98789        -0.024377     -0.036653      0.043850
O	      8.22921      4.13697      6.09767        -0.102728     -0.063403     -0.087236
O	      2.12106      4.09759      4.08901        -0.027577      0.100688     -0.162206
O	      4.27992      6.33634      4.07986         0.131064     -0.032657     -0.283135
O	      4.26994      4.32807      5.96575         0.023055      0.008083     -0.379374
O	      6.24330      6.19652      5.91727        -0.084511     -0.086995     -0.377149
O	      6.22772      4.26472      7.99705        -0.038281      0.013014     -0.243600
O	      2.19068      6.38742      6.11208         0.047177      0.043551     -0.051180
O	      4.11197      8.34764      6.01618         0.056105      0.130265      0.062699
O	      4.25595      6.33070      7.98104         0.013678     -0.069928     -0.700284
O	      6.32302      8.42976      8.30789         0.060547     -0.024801     -0.069199
O	      6.25407      6.48888     10.25565        -0.022977     -0.220142      0.105668
O	      8.29716      8.46147     10.27600         0.101551     -0.017605      0.016854
