# total energy = -211.77555226 eV
 
CRYSTAL
PRIMVEC
0.073153 6.225487 6.260629 
6.217980 0.059870 6.273120 
4.164664 4.177894 0.020848 
PRIMCOORD
36 1
Li	      8.35445      8.34810     12.51617         0.045684     -0.054378     -0.074660
Li	      6.35505     10.38608      8.39933         0.070886     -0.016324      0.185245
Li	      6.25257      2.16466      4.18990        -0.048429      0.067005     -0.026900
Li	      6.25325      6.21232      4.24142         0.179196     -0.142235      0.056183
Li	      4.30343      4.19238      4.26652        -0.024360     -0.071799     -0.122475
Li	      6.10973      4.25450      6.23048         0.047675      0.011999     -0.124809
Li	      4.25474      6.16329      6.28763        -0.076668      0.184820      0.039481
Li	      4.15124      4.25361      8.30745         0.003805     -0.024800      0.113731
Li	      6.25740      6.31629      8.27693        -0.050471      0.091214     -0.006310
Ti	      8.19980      4.16985      8.41653        -0.190758      0.165032     -0.058278
Mn	      4.26369     10.38722      6.29168        -0.101549      0.120847      0.366074
Co	      4.33780      8.21346      8.42011        -0.246582      1.209141     -0.235253
Co	      8.14013      4.21530      4.15823         0.925756     -0.273945     -0.041371
Co	      4.20865      6.25615      2.13608        -0.121911     -0.155882      0.008764
Co	      4.09091      2.22400      6.20878         0.737625     -0.666056     -0.004300
Co	      8.33567      6.32653     10.45197        -0.367005      0.141606      0.002442
Co	      2.15580      4.18916      6.28760        -0.271636      0.094616     -0.064575
Cu	     10.37229      8.35688     10.47316        -0.074739     -0.054055     -0.054212
O	      2.17700      2.21167      2.11209         0.179582     -0.001819      0.116557
O	      4.11594      4.11755      2.00448         0.108607     -0.290308     -0.208674
O	      4.21466      2.03949      4.21231        -0.224353     -0.056128     -1.084687
O	      6.35456      4.18208      4.25594        -0.277864      0.122692     -0.151693
O	      6.14907      1.96544      6.31196        -0.421618      0.124894      0.221933
O	      8.45586      4.24875      6.34393        -0.043462      0.428186      0.144729
O	      2.05059      4.32156      4.16713        -0.036559     -0.318771      0.010741
O	      4.02975      6.31851      4.16540         0.217943      0.073573     -0.094034
O	      4.08853      4.17641      6.24433        -0.320029     -0.801946      0.072664
O	      6.37468      6.43116      6.25334         0.496140      0.598863      0.022476
O	      6.36532      4.22445      8.16814         0.422711     -0.245281      0.087393
O	      8.31128      6.19000      8.47006         0.344524     -0.040801      0.181570
O	      2.03691      6.16048      6.13114        -0.013364      0.055048      0.102525
O	      4.37087      8.44416      6.41357        -0.018657     -0.339516      0.754900
O	      4.22963      6.34284      8.42908         0.076215      0.440592      0.055714
O	      6.26231      8.37644      8.20740        -0.636050     -0.252899     -0.046657
O	      6.32106      6.22593     10.62900        -0.178713     -0.212887     -0.194098
O	      8.43785      8.28401     10.46845        -0.111570      0.089704      0.049868
