# total energy = -202.19547076 eV
 
CRYSTAL
PRIMVEC
0.014165 6.263883 6.119055 
6.249136 0.020681 6.112396 
4.158920 4.164380 0.021129 
PRIMCOORD
36 1
Li	      8.31424      2.11260      6.10991         0.009547      0.041190     -0.003752
Li	      8.23915      4.20726      4.13108         0.006391      0.012131      0.076479
Li	      2.12283      2.09890      4.10833        -0.021807     -0.005659      0.059413
Li	      4.21407      4.11934      4.14112         0.013921      0.029405      0.052421
Li	      4.13338      2.13554      6.04732        -0.009357      0.024148     -0.025871
Li	      6.24894      4.19576      6.07052        -0.018732      0.000045     -0.025486
Li	      4.17001      8.29567      4.10066        -0.021275     -0.045345      0.065240
Li	      2.13261      6.27222      4.07303         0.071200      0.018450      0.020439
Li	      2.11743      4.14387      6.06284         0.020702     -0.011266     -0.135009
Ti	      6.30921      6.27202     12.14661        -0.012979     -0.010928     -0.284553
Mn	      8.32206      8.33627      8.16827         0.042841      0.040462      0.015371
Fe	      4.18901      6.25054      6.01697        -0.035431      0.168313     -0.440822
Co	      2.06090      4.12986      2.10626         0.182271     -0.167458      0.182022
Cu	      6.25919      6.25752      8.12914         0.241109     -0.047246      0.271118
Ni	      6.23364      4.18923      2.10119         0.006518      0.071372     -0.003304
Ni	      4.16240      2.08161      2.08270        -0.151206      0.048535     -0.015371
Ni	      6.23936      2.13804      4.11525         0.058639     -0.073278      0.266058
Ni	      4.18256      6.24861      2.10908         0.021147     -0.004056      0.231937
O	      2.08297      2.08062      2.10726         0.032319      0.179047     -0.009895
O	      4.18176      4.17810      1.98186        -0.146900     -0.012522      0.066014
O	      4.33717      2.08620      4.03619        -0.156808     -0.053996      0.126558
O	      6.25324      4.04081      4.05093         0.030232      0.164808      0.069731
O	      6.27336      1.96983      6.16181        -0.015119     -0.144296      0.061241
O	      8.43368      4.18559      6.36420         0.064929     -0.008083     -0.055626
O	      2.08863      4.21263      3.85034        -0.066667     -0.022110     -0.154927
O	      4.16767      6.26392      4.16075        -0.032096      0.010507     -0.505917
O	      4.14286      4.26508      6.23322         0.009073     -0.182797      0.113246
O	      6.16142      6.28445      6.19375         0.087877     -0.009536      0.032214
O	      6.13662      4.14962      8.18986         0.054272      0.404018     -0.086236
O	      8.38182      6.39970      8.16439        -0.493225     -0.050736     -0.089734
O	      2.03553      6.26557      6.16995        -0.093743     -0.009663     -0.002238
O	      4.16882      8.40844      6.16012        -0.024565      0.100252     -0.056020
O	      4.13294      6.20352      8.05120         0.236282     -0.047435      0.423966
O	      6.33699      8.38414      8.19785         0.027568     -0.401893     -0.272388
O	      6.24383      6.36072     10.23299        -0.044161     -0.050060      0.059337
O	      8.19170      8.39092     10.07953         0.127231      0.045679     -0.025658
