# total energy = -202.01604591 eV
 
CRYSTAL
PRIMVEC
0.008887 6.178848 6.210674 
6.288950 0.019646 6.199599 
4.203143 4.122360 0.002512 
PRIMCOORD
36 1
Li	      0.06976      6.13983      6.17415         0.139994     -0.020485      0.005637
Li	      8.41057      8.27234     12.38310         0.024254     -0.005274     -0.035699
Li	      4.23305      8.20553      8.19179         0.005793     -0.015363      0.024984
Li	      4.28293      6.14109     10.35298        -0.001516      0.008274     -0.005968
Li	      8.41216      6.12819      6.30059        -0.043244      0.026279     -0.042738
Li	      8.31545      6.27196     10.23188         0.022552      0.019652     -0.052404
Li	      6.21592      8.30601      6.33967        -0.017459     -0.014862     -0.007057
Li	      8.37474      8.22753      8.31820        -0.000470      0.004808      0.018499
Li	      6.37426      6.21941      8.25927         0.063071      0.042663     -0.008144
Ti	      4.11049      4.04654      4.17878        -0.042973     -0.226405      0.115517
Mn	     10.38831      8.34149     10.37532         0.141982      0.101175     -0.187532
Fe	      6.31595      6.15470      4.17877         0.048662     -0.002516      0.055099
Co	      2.15920      6.14926      8.24494         0.011248     -0.070307      0.166127
Cu	      6.38139      8.19810     10.38134         0.146413     -0.138045      0.075274
Cu	      6.25247      2.09707      8.19011        -0.031932     -0.012208     -0.013024
Ni	      8.39855      4.18695      8.17267         0.026224     -0.133556      0.090653
Ni	      6.33021      4.13077      6.22836        -0.098660      0.012276     -0.077332
Ni	      4.16680      6.23723      6.28489         0.046288      0.021773     -0.183797
O	      6.28167      8.40837      8.42381        -0.017033     -0.039904     -0.103158
O	      2.02940      1.93932      2.15003        -0.089872     -0.041162     -0.091598
O	      4.27399      4.20007      2.14513         0.158079     -0.159319      0.024884
O	      4.09940      2.19225      4.12326         0.042538      0.226312      0.002370
O	      6.20356      4.14507      4.06251        -0.160626     -0.008511     -0.196345
O	      6.30529      2.19713      6.16063        -0.061771     -0.291148     -0.358378
O	      8.20411      4.12970      6.22260         0.214387     -0.011008     -0.191765
O	      2.17019      4.07931      4.10378         0.157689      0.095942      0.137601
O	      4.26666      6.24074      4.09705        -0.091175     -0.186435      0.285594
O	      4.34451      4.19042      6.05757        -0.136555     -0.080269     -0.132320
O	      6.25315      6.06917      6.15568         0.053164      0.209475      0.126939
O	      6.34802      4.06690      8.34044        -0.064699      0.168885      0.315738
O	      8.50941      6.16465      8.24978         0.007739      0.158408     -0.025422
O	      2.14891      6.14500      6.42939        -0.088309      0.054818      0.009215
O	      4.23106      8.24361      6.04069        -0.024923      0.051521      0.092103
O	      3.98902      6.21513      8.28183        -0.117547     -0.009377      0.008672
O	      6.31345      6.09726     10.28745        -0.045836      0.226874      0.156948
O	      8.55977      8.23430     10.34416        -0.175480      0.037021      0.000825
