# total energy = -201.77966310 eV
 
CRYSTAL
PRIMVEC
0.033784 6.092702 6.219125 
6.341044 -0.019014 6.273167 
4.188415 4.058460 0.025919 
PRIMCOORD
36 1
Li	      6.37731     10.06280      8.38227         0.059117     -0.003347      0.050185
Li	      4.24412      6.07737     10.30803        -0.077583     -0.033418     -0.000584
Li	      6.38122      8.13153     10.26701         0.046188      0.040867     -0.024138
Li	      8.44154      4.04552      8.36213        -0.094197     -0.006569      0.026864
Li	      4.25534      4.00777      4.22449         0.045302      0.043015      0.064535
Li	      6.32279      4.05088     10.33466         0.016492      0.027209     -0.086524
Li	      6.36046      8.08901      6.37297         0.072192     -0.043244     -0.011689
Li	      4.24682      4.09127      8.34906         0.008162     -0.038724     -0.010016
Li	      6.21353      6.13829      8.34733         0.019659     -0.067452     -0.029555
Ti	      8.33352      5.96327     10.40902        -0.056500     -0.221903     -0.095525
Mn	      4.21347      6.08516      2.14435         0.010693      0.457765      0.241759
Fe	      8.52569      8.17351     12.44295        -0.163632      0.047310      0.214050
Co	      0.05853      6.09846      6.23669        -0.147630     -0.017850     -0.015452
Cu	      4.32134      8.09323      8.36505         0.251249      0.085446      0.384257
Cu	      2.14287      2.04627      4.14485         0.005810     -0.096548      0.271365
Cu	      4.19579      2.03727      6.22810        -0.270335      0.112470     -0.223009
Ni	      6.28034      4.05718      6.25581         0.552681     -0.081849      0.223538
Ni	      4.23591      6.05178      6.27893         0.055870     -0.156056     -0.117059
O	      4.22574      6.15913      8.25797        -0.062832      0.009278      0.067601
O	      6.26486      8.09961      8.34719         0.138304      0.107222      0.017995
O	      1.96376      2.01926      2.09900        -0.195094      0.026992     -0.401205
O	      4.20074      4.12038      1.96268         0.036634     -0.199772      0.036310
O	      4.11801      2.04181      4.07608         0.322236     -0.123278     -0.270226
O	      6.31667      4.12147      4.38023         0.077315      0.089370     -0.847733
O	      6.41399      1.94657      6.42565        -0.028366      0.289935     -0.057833
O	      8.57367      4.11450      6.27390        -0.806601     -0.156261     -0.088917
O	      2.09620      4.10639      4.18084        -0.021635      0.082391     -0.024149
O	      4.19416      6.08714      4.08443        -0.265049      0.028018     -0.054792
O	      4.34036      3.97080      6.26811        -0.650000      0.130914      0.093913
O	      6.31061      6.04058      6.14833         0.002992      0.410577      0.464261
O	      6.36469      3.93227      8.18484         0.035895     -0.284524      0.486110
O	      8.59776      6.07419      8.49798         0.136098     -0.013898     -0.073290
O	      2.08501      6.14236      6.15423         0.834537      0.065140     -0.109549
O	      4.16280      8.21078      6.36409        -0.177347     -0.508471      0.097540
O	      6.45220      6.05744     10.53232         0.283137     -0.043282     -0.142205
O	      8.46636      8.00482     10.52793         0.006237      0.042527     -0.056835
