# total energy = -93.05451642 eV
 
CRYSTAL
PRIMVEC
2.151671 4.263085 2.111381 
4.204374 -2.094872 -2.085320 
0.010027 4.253943 -4.214546 
PRIMCOORD
16 1
Li	      2.17334      2.18246      0.00956         0.011715      0.039133     -0.053260
Li	      4.26581      2.24231     -2.14757        -0.107934      0.267514     -0.035289
Li	      2.17712      4.35054     -2.13967         0.068512     -0.014357     -0.030400
Li	      4.37789      4.32560     -4.26191         0.040002     -0.184407      0.124331
Mn	      0.00387      0.07717     -0.06953         1.329128     -0.540159      0.866446
Mn	      2.18822      0.11089     -2.10931        -0.465793     -0.343258     -0.827880
Ni	      0.13115      2.22743     -2.16271        -0.749083     -0.004451     -0.086316
Ni	      2.15572      2.17307     -4.27201         0.165690      0.154320      0.490554
O	      4.31914      4.37459     -1.99128        -0.034858     -0.130456      0.581348
O	      4.32380      2.19422     -4.41715        -0.200083      0.205896      0.037359
O	      4.46893      2.31554      0.02266        -0.496738      0.460958     -0.496797
O	      4.16373     -0.08551     -2.13220        -0.510729      0.805494      0.026200
O	      2.31167      4.35136      0.11212         0.369477     -0.053042     -0.571275
O	      2.15479      2.01115     -2.14326         0.504222     -0.003376     -0.095712
O	      2.19970      6.69470     -2.13827         0.153702     -0.470721     -0.143683
O	      2.04261      4.35407     -4.39374        -0.077231     -0.189088      0.214374
