# total energy = -203.30726996 eV
 
CRYSTAL
PRIMVEC
-0.000455 6.187163 6.299662 
6.138299 0.011613 6.287512 
4.108687 4.133364 -0.008879 
PRIMCOORD
36 1
Li	      6.14088      0.08159      6.34568         0.013140      0.056160      0.026622
Li	      8.11569      2.09533      6.36162        -0.065651     -0.034873      0.011826
Li	      4.13647      6.12228      2.10299        -0.003988     -0.042027     -0.015935
Li	      6.11816      6.18657      4.14563         0.013591     -0.042946      0.012313
Li	      4.08279      4.24086      4.17215         0.006465     -0.009511     -0.019309
Li	      6.13257      4.09776      6.27308         0.021735     -0.019285     -0.064915
Li	      2.05434      6.16493      4.21579        -0.002678      0.000943      0.062444
Li	      4.07744      6.12854      6.27631        -0.031662      0.019583      0.000631
Li	      4.12291      4.12062      8.32717        -0.003316      0.004572     -0.020738
Ti	      4.05122      8.09325      4.26389        -0.052924     -0.397411      0.186526
Mn	      2.07667      4.17728      6.29082         0.109080      0.074199     -0.016669
Fe	      6.13105      6.16479      8.36453         0.035961     -0.016183      0.053489
Co	      2.04406      0.01566      2.08663         0.132480      0.045070     -0.088121
Cu	      8.19923      4.15886      4.20107        -0.066265     -0.126865     -0.089172
Cu	      6.18573      2.09264      4.23206         0.115946      0.077260     -0.084066
Cu	      2.10517      4.06322      2.04538        -0.101059      0.196515     -0.068832
Cu	      4.11333      2.07162      6.27502         0.060155      0.088270      0.005401
Ni	      4.06075      2.11235      2.03691         0.117472     -0.139077      0.256807
O	      8.15095      6.06544      8.28030        -0.031963      0.044595      0.142219
O	      2.07317      6.06829      6.45946        -0.045043      0.031585      0.015726
O	      8.23268      8.31913     10.52751         0.282568     -0.141170     -0.043008
O	      2.07440      2.03600      2.09438        -0.117003     -0.212677     -0.019163
O	      4.19401      4.10572      2.12014        -0.245858      0.078781      0.055564
O	      4.20322      2.00812      4.22716        -0.231928      0.216492     -0.235427
O	      6.22181      4.07562      4.01172        -0.124770      0.108663     -0.085486
O	      6.07733      2.11550      6.17268         0.063158     -0.006620      0.106046
O	      8.16659      4.22950      6.17204         0.010739     -0.071685      0.277172
O	      1.94872      4.16634      4.39355        -0.057537     -0.048828     -0.046297
O	      4.05971      6.29850      4.20668         0.011733      0.416224      0.006144
O	      3.97472      4.08018      6.28212        -0.031526     -0.000123      0.033237
O	      6.17334      6.32460      6.37097        -0.056923      0.024075     -0.014952
O	      6.18389      4.19039      8.54597         0.174169     -0.108231     -0.021251
O	      4.22208      8.27250      6.21854        -0.064461      0.044580     -0.165008
O	      4.06718      6.23377      8.42954        -0.056424     -0.079991     -0.119999
O	      6.15625      8.30919      8.31261         0.054647      0.114152     -0.027880
O	      6.11776      6.25179     10.38512         0.167938     -0.144216     -0.005937
