# total energy = -201.91469294 eV
 
CRYSTAL
PRIMVEC
0.021776 6.343120 6.080597 
6.308719 0.045345 6.056865 
4.227397 4.234550 0.008305 
PRIMCOORD
36 1
Li	      6.44775     10.45149      8.16133         0.083084     -0.048276      0.090082
Li	      4.38218      8.37175      8.16045         0.032435     -0.080388      0.040185
Li	      4.36734      6.34080      9.97896        -0.021900     -0.034800      0.024162
Li	      6.35731      8.35847      9.97322         0.005901      0.036658      0.074936
Li	      4.20724      2.16196      6.05683        -0.007247     -0.003634      0.003647
Li	      6.22010      4.40703     10.06787        -0.094863      0.020787     -0.075954
Li	      8.31786      6.48626     10.05917         0.014753      0.069617     -0.052419
Li	      8.32289      8.52054      8.23938         0.019035      0.031366      0.040745
Li	      6.30249      6.51343      8.26482        -0.019189     -0.021300     -0.098771
Ti	      6.30039      4.27736      6.06683        -0.109812      0.089243     -0.040233
Mn	      8.44109      8.49811     12.07173        -0.158669      0.152204      0.098619
Fe	      4.18923      6.40259      6.21451         0.166236     -0.165883     -0.223918
Co	     10.53111      6.40772      8.10063        -0.105790      0.092825     -0.023360
Cu	      0.06603      6.30730      6.00757         0.047250      0.020736      0.242408
Cu	      8.42226      4.33957      8.13204        -0.155589      0.122575     -0.051256
Cu	      2.15672      2.10862      4.00039         0.014097     -0.071901     -0.022699
Cu	      4.23899      4.20692      3.99636         0.040753     -0.009203     -0.030490
Cu	      6.35658      8.47498      6.13704        -0.044762      0.069347     -0.176148
O	      4.25895      6.32848      8.04447         0.020340      0.037706      0.097314
O	      6.34356      8.48487      7.98572        -0.003533     -0.059357      0.068289
O	      6.34019      6.37548     10.20576         0.010451      0.026600     -0.065379
O	      8.40839      8.52621     10.26270         0.011900     -0.027146     -0.075179
O	      1.94759      2.22728      2.00905         0.010236     -0.086794     -0.152624
O	      4.13285      4.42583      1.96177         0.179800     -0.059913     -0.269799
O	      4.11751      2.24755      4.02356         0.120057     -0.093970     -0.028720
O	      6.26816      4.29229      4.10552         0.134995     -0.142564      0.074585
O	      6.42752      2.25665      6.14613        -0.131356     -0.059858      0.011493
O	      8.31137      4.13893      6.09721         0.049926      0.090644     -0.149732
O	      2.21980      4.13459      4.12617        -0.053704      0.026849      0.252526
O	      4.33459      6.24298      3.97429        -0.041976      0.030678      0.071861
O	      4.32660      4.29614      6.02563         0.272204      0.044805      0.222743
O	      6.30058      6.24409      6.02776        -0.041071     -0.264928      0.170411
O	      6.37510      4.13048      8.04360        -0.118482     -0.011405     -0.047691
O	      8.62717      6.29121      8.08031        -0.017824      0.161131      0.021883
O	      2.18417      6.52743      6.07829        -0.169750     -0.042169     -0.009649
O	      4.05946      8.41168      6.08809         0.062067      0.159718     -0.011864
