# total energy = -205.91070614 eV
 
CRYSTAL
PRIMVEC
-0.047152 6.234637 6.085300 
6.236872 -0.050212 6.088624 
4.123542 4.124356 0.000817 
PRIMCOORD
36 1
Li	      8.22591      2.08483      6.01883        -0.066268     -0.017332      0.053892
Li	      8.29190     10.28000     10.17934        -0.026735      0.121721     -0.045342
Li	      6.21732      2.00987      4.11377        -0.129701      0.025099     -0.045358
Li	      6.14783      2.13992      8.10582        -0.037650     -0.038479     -0.023339
Li	      6.14180      6.21617      4.11146         0.100624     -0.023023     -0.003065
Li	      4.12572      4.13067      4.11393        -0.008622     -0.107303      0.045812
Li	      4.17824      6.15997      6.03773         0.022471     -0.056809      0.068322
Li	      4.24694      4.07376      8.11603        -0.070863     -0.054419     -0.052378
Li	      6.19408      6.11328      8.10007         0.040791      0.120481     -0.053162
Ti	      6.25285      4.14342      2.16050         0.233944      0.042720      0.410575
Mn	      4.14394      2.02989      2.10733         0.105193     -0.087844     -0.041104
Fe	      8.31461      6.22863     10.08175        -0.215393     -0.153110     -0.176918
Co	      8.24693      6.19380      6.10058         0.057876      0.041313     -0.103413
Co	     10.31084      8.21902     10.13718        -0.476581     -0.350482     -0.865967
Cu	      6.20651     -0.00663      6.05142        -0.057402      0.292967      0.142820
Cu	      6.19961      8.21851      6.08137         0.465417     -0.203266      0.059968
Ni	      8.25202      4.07805      8.10523         0.129225      0.024025      0.249877
Ni	      6.17759      4.10686      6.06401        -0.111075      0.233063     -0.130987
O	      4.20105      8.26811      6.10581        -0.390863      0.117677      0.467118
O	      2.19874      1.99143      1.98606        -0.034089     -0.116305     -0.028404
O	      4.16157      3.99044      1.98015         0.050838     -0.002461      0.003202
O	      4.15614      2.04587      3.97009        -0.047373     -0.026003     -0.030271
O	      6.17160      4.11051      3.98549         0.007513      0.045047     -0.422440
O	      6.06525      2.07701      6.08673         0.078024     -0.358438      0.035422
O	      8.24965      4.22622      6.09411         0.240626     -0.038264     -0.082183
O	      1.90593      4.21459      4.08618         0.980121     -0.163850     -0.058903
O	      4.02795      6.32811      4.05153         0.275016     -0.588642      0.272714
O	      4.08851      3.98893      6.10064         0.162701      0.038725      0.009720
O	      6.33439      6.19721      6.08489        -0.156901     -0.124373      0.036444
O	      6.24944      4.10722      8.20514        -0.166501      0.114995     -0.290382
O	      8.26644      6.11474      8.05816         0.028586      0.070047      0.193248
O	      1.99230      6.13789      6.11041        -0.110942      0.214421      0.095227
O	      4.00480      6.33117      8.11086        -0.169118     -0.029940     -0.065403
O	      6.04126      8.35761      8.08906        -0.040767      0.072884      0.183693
O	      6.26506      6.04748     10.20323        -0.062075      0.679264      0.040715
O	      8.37420      8.17013     10.14691        -0.600047      0.285890      0.150252
