# total energy = -205.16907045 eV
 
CRYSTAL
PRIMVEC
0.020279 6.206275 6.202524 
6.220098 0.023908 6.198851 
4.155777 4.144132 0.006875 
PRIMCOORD
36 1
Li	      6.19293      4.17181      2.09634        -0.032571      0.007143      0.031036
Li	      4.08839      2.13979      2.06007        -0.022376      0.043292      0.058335
Li	      6.27569      8.29908     10.28251        -0.003138     -0.001458     -0.008054
Li	      0.06927      2.10294      2.08896        -0.025559     -0.068250      0.025674
Li	      2.03412      4.05353      2.10379         0.094533      0.015864      0.013449
Li	      8.28369      6.25347      6.23491        -0.008938      0.022056     -0.010712
Li	      6.23673      4.13279     10.23903        -0.060041      0.022182     -0.017131
Li	      4.20221      6.17900      6.20921        -0.011994     -0.037450     -0.013388
Li	      6.25814      6.17912      8.22105         0.033583      0.025068      0.026410
Ti	      4.21302      6.24861     10.21567         0.213649      0.056528     -0.087458
Mn	      4.12992      4.19254      0.11069         0.018309      0.091000     -0.086028
Fe	      6.21615      8.20405      6.27115         0.085304      0.066871     -0.293056
Co	      4.17759      4.10878      4.05706        -0.131809      0.207476      0.416949
Co	      8.35724      6.21877     10.24490        -0.052984      0.178609      0.068999
Cu	      2.10437      2.05938      0.11620        -0.005387     -0.015685     -0.073828
Cu	      2.02927      2.09138      4.08076        -0.001030     -0.018082      0.000260
Cu	      4.18447      4.15105      8.23548        -0.048194     -0.142058      0.088664
Ni	      6.22316      4.15350      6.26426        -0.025461      0.026662     -0.155646
O	      6.13722      4.17832      8.21039        -0.216611     -0.059276      0.256885
O	      8.26969      6.32614      8.46199         0.033437      0.262889     -0.245924
O	      2.08365      2.05554      2.15617        -0.029168      0.026578     -0.300455
O	      4.16294      4.14986      2.00181        -0.017286     -0.030707      0.035914
O	      4.09013      2.03517      4.10262         0.175136      0.127450     -0.031992
O	      6.33008      4.20401      4.21773        -0.560565     -0.208923     -0.144046
O	      6.33231      2.00766      6.24054         0.035448     -0.060661      0.024568
O	      8.39769      4.14128      6.19194        -0.007546      0.065738      0.041573
O	      2.07912      4.14500      4.18602         0.706489     -0.172017     -0.041253
O	      4.15542      6.10067      4.14614        -0.092586     -0.468574     -0.029648
O	      4.13358      4.12294      6.14573        -0.133390     -0.006491     -0.561372
O	      6.20537      6.25794      6.07701        -0.010750      0.016228      0.156400
O	      1.97531      6.20829      6.06214        -0.021995     -0.093373      0.146350
O	      4.15934      8.42550      6.24483         0.058349     -0.040961      0.001481
O	      4.19590      6.16593      8.36657        -0.013279     -0.040618      0.046757
O	      6.35608      8.29618      8.15686         0.240904      0.024187      0.297483
O	      6.14883      6.28286     10.48900        -0.203911     -0.044402     -0.021537
O	      8.32351      8.39255     10.35414         0.041429      0.223164      0.384343
