# total energy = -206.21457417 eV
 
CRYSTAL
PRIMVEC
0.028081 6.062435 6.762900 
6.031583 0.081408 6.709929 
4.047085 4.030004 0.032084 
PRIMCOORD
36 1
Li	      0.07178      6.06686      6.73199         0.080347     -0.120598      0.003916
Li	      6.12510     10.01964      8.98825        -0.010375     -0.021690     -0.059915
Li	      6.06693      8.16305     11.13935        -0.006215     -0.070384     -0.073584
Li	      6.03954      6.12732      4.61397         0.024983      0.026751     -0.059154
Li	      4.05621      3.99975      4.59353        -0.023174      0.024489     -0.032794
Li	      4.01918      2.09773      6.66400        -0.023773      0.068340      0.053138
Li	      2.02572      6.01835      4.63981         0.008072      0.059979      0.047904
Li	      2.03391      4.08183      6.62862        -0.055118      0.077088     -0.005166
Li	      3.92365      4.13937      8.80901        -0.029792     -0.020810     -0.020394
Ti	      9.99550      6.06511      8.97344        -0.296839     -0.241150      0.567452
Mn	      8.04998      4.12939      4.56923         0.191749      0.050197     -0.307607
Fe	      2.08709      8.04577      6.81505         0.350961     -0.213673     -0.046318
Co	      4.06690      2.02043      2.36441        -0.018353     -0.005138     -0.004026
Co	      6.04578      4.09255      6.65693        -0.686868      0.256342     -0.204982
Cu	      2.00377      4.03074      2.34111         0.101870      0.102408      0.290990
Cu	      6.06707      4.15401     11.22195        -0.082494     -0.008001      0.029606
Cu	      4.08272      6.05712      6.79317        -0.306213      0.322505     -0.001056
Cu	      6.08302      6.13972      8.96012        -0.040705      0.057072      0.137275
O	      2.22121      6.10477      6.78968        -0.407773     -0.089123      0.045619
O	      5.99263      8.04941      9.14632        -0.145817     -0.014059     -0.028702
O	      5.99352      6.00104     11.42744        -0.123971      0.265344      0.148084
O	      2.02782      2.07049      2.13153         0.041524     -0.094000     -0.030963
O	      4.03655      4.05235      2.28259         0.135082      0.029887     -0.036693
O	      4.02685      1.99179      4.33875        -0.003312     -0.036474     -0.031757
O	      6.15668      4.05559      4.70723         0.102353     -0.133733     -0.607409
O	      6.10384      2.12776      6.87159        -0.118368      0.159990      0.059055
O	      7.99609      4.10573      6.51801         0.225792      0.150703      0.067416
O	      1.86177      4.08497      4.52777         0.304677     -0.031028     -0.013316
O	      4.03721      6.26509      4.15115        -0.010016     -0.242583     -0.346155
O	      4.11199      4.20375      6.65574         0.076533     -0.512874     -0.067089
O	      5.92040      5.99570      6.65763         0.598679     -0.236653     -0.065422
O	      6.07026      4.10068      8.61856         0.033533     -0.042475      0.289584
O	      8.09447      6.10109      8.85010         0.321345      0.141004     -0.065753
O	      4.08889      7.93148      7.17276         0.049398      0.385466      0.154264
O	      4.08583      6.17461      9.34462        -0.009613     -0.031726      0.141421
O	      8.22457      8.23024     11.42996        -0.248111     -0.011390      0.072531
