# total energy = -208.71641149 eV
 
CRYSTAL
PRIMVEC
-0.026149 6.167178 6.406357 
6.114799 0.041480 6.338153 
4.094233 4.084430 0.010022 
PRIMCOORD
36 1
Li	      4.04089      4.04738      0.08094        -0.010003      0.008109     -0.036216
Li	      2.07060      2.11406      0.13976        -0.026714     -0.019270     -0.011626
Li	      4.11364      2.06017      2.23066         0.032978     -0.023429      0.009321
Li	      8.15784      4.12185      4.44821         0.020374     -0.003051      0.044030
Li	      2.15265      1.96630      4.21018         0.058469     -0.034426      0.014028
Li	      8.11627      6.08429      6.30725         0.046839     -0.019233      0.000552
Li	      6.21184      4.08815      6.39471         0.037482     -0.022883      0.017381
Li	      6.07785      4.20850     10.50688        -0.084167      0.046490      0.012866
Li	      6.05367      6.19310      8.55484         0.040664     -0.030919      0.025186
Ti	      4.19267      6.28094      6.35857        -0.078120      0.120471     -0.033999
Mn	      8.09851      6.23878     10.58242        -0.062794      0.122510     -0.044999
Fe	      8.12082      4.05757      8.35891        -0.053617      0.192838      0.199981
Co	      6.09727      2.06165      4.54531         0.055664      0.065702      0.104681
Co	      2.01920      4.15292      6.31871        -0.035784     -0.412882      0.540904
Co	      4.02685      4.14616      8.41593         0.118430     -0.074472      0.223996
Cu	      6.10451      4.11817      2.15418         0.013390      0.016720     -0.003652
Ni	      6.10956      2.10953      8.44620        -0.078835      0.034637      0.025994
Ni	      4.08813      4.04658      4.25084        -0.003224     -0.015526      0.046295
O	      2.03463      2.04311      2.21674         0.095210     -0.081076      0.005554
O	      4.06213      4.12253      2.20187         0.012775     -0.120956     -0.059929
O	      4.25251      2.03383      4.24659        -0.021587     -0.107647     -0.003293
O	      6.09818      3.90096      4.33515         0.145449     -0.120288     -0.101959
O	      6.17351      2.04090      6.34074         0.009867      0.008261     -0.140757
O	      8.17363      4.11538      6.50682        -0.019074      0.010119     -0.128991
O	      2.01130      4.26033      4.29767        -0.096177      0.095622     -0.789046
O	      3.94594      6.14416      4.32405         0.024016      0.086796      0.223576
O	      3.95878      4.17888      6.43988        -0.052718      0.023058     -0.033985
O	      6.05267      6.28567      6.27178        -0.275221     -0.707869     -0.145435
O	      6.04129      4.13524      8.49274        -0.100726      0.133956     -0.050819
O	      8.14278      6.23829      8.62097        -0.110459      0.075494     -0.040199
O	      2.07596      6.10514      6.16993         0.197094      0.949992     -0.235189
O	      4.15126      8.15508      6.37772         0.088807     -0.182341     -0.070658
O	      3.99184      6.07243      8.30038         0.090175     -0.026673     -0.155316
O	      6.20858      8.29844      8.23293         0.040653      0.100986      0.648973
O	      6.18630      6.36016     10.60550        -0.005210      0.019927      0.022895
O	      8.02396      8.18667     10.40970        -0.013907     -0.108745     -0.080145
