# total energy = -207.44764793 eV
 
CRYSTAL
PRIMVEC
0.036757 5.956733 6.368742 
6.299025 -0.058843 6.464294 
4.151714 3.988173 0.009121 
PRIMCOORD
36 1
Li	      4.26456      7.86290      8.53262        -0.044089      0.002037      0.092759
Li	      6.22154      7.92159     10.51656        -0.106650      0.030595     -0.010180
Li	      0.02789      2.07118      2.21246         0.003416     -0.013872      0.048795
Li	      6.26754      5.94030      4.49264         0.022993     -0.034545     -0.121685
Li	      8.18008      5.97305      6.44146         0.142947     -0.065858     -0.079180
Li	      6.38186      7.77580      6.51036        -0.196306      0.127067      0.052480
Li	      4.34404      5.91346      6.40840        -0.146768      0.071929     -0.013204
Li	      4.10741      3.90250      8.32762         0.069217      0.005193      0.030063
Li	      6.36543      5.92279      8.40982        -0.039376      0.001192      0.068715
Ti	     10.38820      4.03711      6.54804         0.064479      0.008645      0.138782
Mn	      6.32383      9.86942      8.52140         0.144984      0.050552      0.111782
Fe	      8.46092      5.95518     10.60516        -0.133048      0.088494      0.135703
Co	      4.21784      5.97136     10.54104         0.160964      0.198295      0.042605
Co	      2.07972      3.96968      2.20622        -0.027082     -0.018133      0.055680
Co	      0.07199      3.97764      4.27700         0.100093      0.008641     -0.110248
Cu	      2.09370      2.00447      0.04113         0.001407     -0.000391     -0.131896
Cu	      6.17581      3.96590      6.51265         0.086453     -0.155598     -0.071391
Ni	      4.20682      3.88859      4.35019        -0.043420      0.003830     -0.354460
O	      6.27625      8.03563      8.47432         0.028582      0.016369      0.021686
O	      2.11801      1.99211      2.00455        -0.033814     -0.045607      0.130437
O	      4.18651      3.97231      2.04946        -0.062275      0.016653     -0.177143
O	      4.19563      1.85941      4.29214        -0.041803      0.041285     -0.007853
O	      6.23807      3.97661      4.01883         0.019584     -0.150047     -0.004972
O	      6.35008      1.95637      6.44949        -0.156049      0.046718     -0.052825
O	      8.38754      3.92531      6.66682        -0.038102      0.255992      0.082480
O	      2.05449      3.98732      4.14193         0.004470     -0.098242      0.031504
O	      4.08014      6.01604      4.31418         0.143805      0.133336      0.045591
O	      4.26265      3.89616      6.30941         0.207632      0.063788      0.274169
O	      6.25829      5.83662      6.46484        -0.019103     -0.239786      0.001449
O	      6.51403      3.94608      8.83826        -0.072103     -0.004605     -0.017884
O	      8.41049      5.83190      8.70680        -0.069984     -0.038413     -0.244969
O	      1.98234      5.97790      6.44668        -0.026669     -0.184638      0.058441
O	      4.11973      8.05530      6.23202         0.276205      0.064263      0.040098
O	      4.03763      5.89486      8.55261        -0.082134      0.013466     -0.242275
O	      6.36616      5.87943     10.86354        -0.010064      0.002675      0.205799
O	      8.57132      7.99651     10.78714        -0.128393     -0.201280     -0.028854
