# total energy = -92.84660057 eV
 
CRYSTAL
PRIMVEC
2.162218 4.283982 2.121731 
4.224984 -2.105141 -2.095543 
0.010076 4.274795 -4.235205 
PRIMCOORD
16 1
Li	      2.19470      2.20390      0.00965         0.010078      0.043532     -0.061106
Li	      4.30774      2.26435     -2.16867        -0.126567      0.322575     -0.048911
Li	      2.19851      4.39329     -2.16070         0.076476     -0.017786     -0.037741
Li	      4.42091      4.36811     -4.30380         0.050761     -0.218199      0.152864
Mn	      0.00396      0.09889     -0.09098         1.650211     -0.689797      1.081974
Mn	      2.22032      0.13298     -2.11964        -0.561471     -0.410759     -1.009188
Ni	      0.16375      2.26001     -2.18383        -0.920437      0.006152     -0.121967
Ni	      2.17691      2.19443     -4.31400         0.195115      0.164055      0.604200
O	      4.36159      4.41758     -2.01085        -0.034457     -0.131310      0.674766
O	      4.36629      2.21578     -4.46056        -0.245530      0.231000      0.067562
O	      4.51285      2.33829      0.02288        -0.646178      0.541695     -0.584422
O	      4.20466     -0.08634     -2.15316        -0.607868      1.028320      0.020475
O	      2.33439      4.39412      0.11323         0.406032     -0.044174     -0.725013
O	      2.17597      2.03091     -2.16433         0.598056      0.016145     -0.133015
O	      2.22132      6.76049     -2.15929         0.211509     -0.605422     -0.164112
O	      2.06269      4.39686     -4.43692        -0.055730     -0.236028      0.283635
