# total energy = -210.77551980 eV
 
CRYSTAL
PRIMVEC
0.002510 6.306987 6.162339 
6.112535 0.014275 6.150928 
4.074779 4.196893 0.009513 
PRIMCOORD
36 1
Li	      2.11704      6.38043      8.20750         0.093252      0.057694     -0.052162
Li	      4.03824      2.08234      2.07371        -0.008793      0.018370      0.021012
Li	      8.16260      4.22040      4.14039        -0.040834     -0.047073      0.002686
Li	      6.14323      8.34298     10.35172         0.109100     -0.068158     -0.025945
Li	      6.11857      2.08428      8.16158        -0.012018      0.017734     -0.021135
Li	      4.13022      2.08795      6.09162        -0.039132      0.107747      0.037735
Li	      6.15779      4.14710      6.14847        -0.029073     -0.051209      0.015643
Li	     10.11120      8.46812     10.29051        -0.084275      0.023984     -0.011753
Li	      4.07790      6.31883      6.16315        -0.033190     -0.080217      0.011030
Ti	      4.23082      4.16226      4.04744        -0.033463      0.091251      0.205034
Mn	      6.06998      8.40240      6.17273         0.192707     -0.046255      0.309668
Fe	      8.08323      4.16324      8.14673        -0.077747      0.208553      0.070704
Co	      0.01128      0.02339      0.01716         0.030879     -0.034393     -0.034725
Co	      6.07757      6.30866      4.11112         0.171714      0.217744      0.062295
Co	      4.09882      4.26365      8.20961        -0.104302     -1.414523     -0.162384
Co	      6.07207      6.31196      8.20369        -0.018195     -0.236182     -0.051038
Cu	      8.14402      8.42399     12.29281         0.211769      0.040372     -0.176415
Cu	      8.13978      6.35619     10.28025        -0.071116      0.583710     -0.037879
O	      8.16332      8.35782     10.10272        -0.007472      0.265046      0.083757
O	      2.01218      2.19118      2.10469         0.030097     -0.162417      0.986120
O	      3.99846      4.22202      2.10276         0.112984      0.029678      0.028900
O	      4.02774      2.26418      4.08837        -0.730526     -0.085411     -0.017354
O	      6.06014      4.21200      4.13347        -0.056233      0.853556     -0.075408
O	      6.23084      1.95076      6.17131        -0.163399     -0.068948      0.012770
O	      8.26019      4.26948      6.22893         0.069848     -0.103106     -0.259666
O	      2.05826      4.22861      4.16298        -0.094303     -1.285910     -0.083715
O	      4.04222      6.16903      4.11431         0.746137     -0.167623     -0.019800
O	      3.95644      4.20438      6.15804         0.104460      0.076068     -0.323771
O	      6.06871      6.48973      6.12207        -0.038463     -0.130583     -0.652970
O	      6.08348      4.34931      8.16935         0.136268      0.252124      0.014873
O	      8.00478      6.38130      8.25950        -0.323110     -0.142753     -0.384850
O	      1.95821      6.16201      6.15916        -0.092308      0.065954      0.444182
O	      4.12161      8.53394      6.21267        -0.170783      0.093773     -0.044153
O	      4.19029      6.09123      8.21383         0.471598      1.231238      0.074172
O	      6.21378      8.30696      8.09301        -0.262027     -0.060386     -0.043520
O	      6.16947      6.32475     10.39976         0.009948     -0.049447      0.098061
