# total energy = -210.22230585 eV
 
CRYSTAL
PRIMVEC
-0.058972 6.205751 6.217236 
6.107193 0.005534 6.151737 
4.070329 4.093159 0.004699 
PRIMCOORD
36 1
Li	      1.98884      2.07724      0.19433        -0.000929     -0.065134     -0.024881
Li	      2.02613      0.12220      2.15970        -0.035362     -0.059121      0.009219
Li	      6.01983      2.16047      4.08491         0.057950      0.036263     -0.019050
Li	      0.16324      2.08514      2.00846        -0.010311     -0.044692      0.037102
Li	      2.01365      3.94289      2.10202        -0.002380      0.048512      0.045988
Li	      2.07894      1.96744      4.00847        -0.108126      0.012851      0.081095
Li	      4.19090      4.02534      4.01865         0.128224      0.027841     -0.004749
Li	      4.11431      2.02600      6.10913         0.027767      0.051619      0.048645
Li	      6.01140      6.16534      8.20207         0.019455      0.026701      0.010377
Ti	      8.10558      6.17332     10.16023        -0.049271     -0.102503     -0.423650
Mn	      6.06980      0.13013      6.22553         0.104720     -0.281222     -0.066791
Fe	      6.09258      8.14208      6.29092        -0.011836      0.088935     -0.148933
Co	      4.04605      0.03878      4.10313        -0.323093      0.567657     -0.374532
Co	      6.05906      4.15311     10.27082         0.065560     -0.082953     -0.026033
Co	      3.98414      6.21657      6.23864         0.094851     -0.037992      0.068204
Co	      4.02519      4.17463      8.25951        -0.027472     -0.033976      0.001947
Ni	      3.98960      2.07533      2.14476         0.198376     -0.029973     -0.200399
Ni	      6.11148      4.15534      6.19713         0.189846     -0.382950     -0.076891
O	      2.05930      2.06141      2.07578        -0.165368     -0.007411      0.016929
O	      4.04390      4.08829      1.90468        -0.010924      0.113188      0.113314
O	      4.08602      1.91923      4.10184         0.220253     -0.085303      0.212160
O	      6.23893      4.07618      4.22196        -1.154131     -0.283867      0.009236
O	      6.11494      1.94133      6.13436        -0.026048      0.383683      0.039554
O	      8.24229      4.09254      6.01562        -0.051715      0.124146      0.440537
O	      1.92715      4.25728      4.16023        -0.076453      0.053932     -0.044818
O	      3.92876      6.28729      4.29296        -0.087017      0.066653     -0.027675
O	      4.02995      4.27200      6.30480        -0.072479      0.113066      0.099917
O	      5.89996      6.19463      6.18461        -0.100526      0.059985     -0.026358
O	      5.95023      4.14043      8.33026        -0.053498      0.029163      0.039278
O	      8.07778      6.30023      8.31971         0.014493      0.045160      0.298201
O	      1.93901      6.15730      6.10426         0.146138      0.009461     -0.027249
O	      4.05318      8.20180      6.09518        -0.042087     -0.060345     -0.012509
O	      4.01364      6.10087      8.23389        -0.026551      0.006004     -0.300693
O	      6.12222      8.22835      8.20360         0.037508      0.045440      0.175803
O	      6.05307      6.10515     10.40190         0.918743     -0.178249      0.057130
O	      8.19361      8.28104     10.19394         0.211693     -0.174564      0.000573
