# total energy = -214.16483898 eV
 
CRYSTAL
PRIMVEC
0.018942 6.285108 6.229545 
6.162958 -0.013354 6.261704 
4.105073 4.208299 -0.005335 
PRIMCOORD
36 1
Li	      4.09448      2.12745      2.14710        -0.030052      0.019879      0.045590
Li	      4.08362      6.25232      2.11138        -0.079683      0.012073     -0.000390
Li	      2.11580      2.14076      4.18920         0.040403      0.110252      0.007383
Li	      4.03098      4.21399      4.21120        -0.109658      0.019105     -0.008565
Li	      4.09144      2.18836      6.18750        -0.053387      0.022696      0.086480
Li	      2.10918      6.19001      4.17051        -0.032082     -0.147295     -0.100815
Li	      2.19201      4.19236      6.11955        -0.028879     -0.069704     -0.108314
Li	      4.06477      6.23439      6.16005         0.056037     -0.045448     -0.023611
Li	      4.12323      4.18269      8.27143        -0.009794     -0.024425      0.016694
Ti	      6.16208      6.39381      8.26184         0.576923     -0.137708     -0.329312
Mn	      8.24205      8.37881     12.47886         0.102117      0.083393      0.097561
Fe	      6.00123      4.22619      6.23546         0.175864      0.155562      0.157101
Co	      2.06346      0.01192      2.10660        -0.000034      0.052585     -0.002395
Co	      4.13793      0.01126      4.19218         0.031518      0.026148      0.074150
Co	      6.15883      2.09535      4.18038        -0.029226      0.001665      0.006776
Co	      2.15698      4.25040      2.17593        -1.259118     -0.209270     -0.213776
Co	      4.16160      8.08282      4.15211         0.295844     -0.113520     -0.075174
Cu	      4.14785     10.46780      6.25114        -0.096634     -0.093941      0.051568
O	      2.04527      2.21016      1.88984         0.149796     -0.209048     -0.087096
O	      4.06020      4.21536      2.01293         0.573758      0.079577     -0.164912
O	      4.23703      1.92839      4.20697         0.072661     -0.022738     -0.027534
O	      6.29774      4.06986      4.17725        -0.043232     -0.062924     -0.064406
O	      6.26226      2.23455      6.12265         0.022996     -0.159433     -0.059589
O	      8.23716      4.08295      6.16981        -0.104103     -0.149641     -0.183813
O	      2.00312      4.16817      4.12505        -0.167217     -0.055976      0.350742
O	      4.12693      6.31902      4.09652        -0.033179      0.039529      0.049537
O	      4.15285      4.20096      6.23176        -0.046680     -0.000392      0.038181
O	      6.13823      6.24472      6.38168        -0.023237      0.019770      0.287334
O	      6.21070      4.29769      8.35335         0.376299      0.065379     -0.042185
O	      8.09935      6.18318      8.35551        -0.022789      0.259252      0.033246
O	      1.98850      6.47172      6.26314         0.141117      0.081788      0.109322
O	      3.97648      8.30646      6.11679        -0.070082      0.143546     -0.028790
O	      4.19185      6.27615      8.50058        -0.133323      0.021422     -0.022182
O	      6.20739      8.31202      8.45145        -0.075841      0.055920      0.074439
O	      6.09413      6.41134     10.43510        -0.123278      0.157733     -0.010127
O	      8.19632      8.49677     10.50868        -0.043826      0.074189      0.066883
