# total energy = -215.87052571 eV
 
CRYSTAL
PRIMVEC
-0.004825 6.319642 6.205281 
6.222333 0.004459 6.196722 
4.146102 4.204895 0.005194 
PRIMCOORD
36 1
Li	      2.02343      2.05929      0.06155        -0.049274      0.000510     -0.019340
Li	     10.23415      6.26896      8.27280         0.018071      0.014067      0.000549
Li	      8.26358      4.39493      8.25391        -0.002617      0.018642     -0.005557
Li	      4.07303      4.27776      4.15314         0.042701      0.024752      0.001263
Li	      8.31099      6.35149      6.36680         0.005671     -0.028247     -0.045988
Li	      8.30409      6.27685     10.12034        -0.003089     -0.015810      0.007206
Li	      2.14813      4.20135      6.18986         0.008593     -0.005736      0.019062
Li	      8.28655      8.21901      8.23300        -0.003301     -0.028363      0.016708
Li	      6.42140      6.25823      8.21715         0.003722     -0.053589     -0.004637
Ti	      8.34848     10.47463     10.44729        -0.048311     -0.120397      0.378413
Mn	      4.10926      6.26661      6.23486        -0.136261      0.014527     -0.022479
Fe	      4.13205      2.19981      2.01187         0.053413     -0.215453      0.076210
Co	      2.01501      2.24870      4.14161        -0.030454      0.065354      0.068201
Co	      6.17571      4.16794      6.35747         0.034400     -0.016588     -0.010381
Co	      0.05116      6.36881      6.20916        -0.072992      0.026998     -0.092871
Co	      2.09727      0.02065      2.08442        -0.017112      0.071687     -0.014273
Co	      6.23504      8.44867     10.32958        -0.107261     -0.064692      0.000200
Co	      6.22217      4.17444     10.23301        -0.026808     -0.061194      0.086115
O	      8.30951      6.30009      8.24118         0.008630     -0.008427      0.027068
O	      2.14130      1.96510      2.11786        -0.073092     -0.033277      0.029171
O	      4.31344      4.16170      2.06277        -0.042993      0.154226     -0.128921
O	      4.20709      2.00546      4.05780         0.109347     -0.034300      0.009485
O	      6.33521      4.34831      4.07134         0.096534     -0.034677      0.011548
O	      6.20874      2.08760      6.01006         0.048505      0.218702     -0.051447
O	      8.29466      4.20410      6.10217        -0.127538     -0.031353     -0.408365
O	      2.06458      4.05873      4.12184         0.006775     -0.129801     -0.035404
O	      4.13197      6.33762      4.30640         0.035454      0.085581      0.045245
O	      4.14771      4.38254      6.21476         0.058383      0.091245     -0.005400
O	      6.04782      6.25796      6.18776        -0.036361     -0.000173     -0.028950
O	      6.22635      4.15289      8.32284         0.030455     -0.014676     -0.117528
O	      2.11919      6.29879      6.35482         0.391708     -0.013554      0.126154
O	      4.14015      8.35140      6.18741        -0.015500     -0.128023     -0.020800
O	      4.05292      6.41825      8.22495        -0.045264      0.024313     -0.071911
O	      6.16258      8.60140      8.41716         0.058343      0.070386      0.100167
O	      6.12806      6.25844     10.29756        -0.082519     -0.009262      0.101381
O	      8.21146      8.55540     10.30717        -0.089957      0.166602     -0.019894
