# total energy = -199.14618527 eV
 
CRYSTAL
PRIMVEC
0.027088 6.198909 6.250742 
6.204242 0.009545 6.268158 
4.150460 4.158226 -0.007826 
PRIMCOORD
36 1
Li	      6.19633      6.24607     12.43424         0.006711      0.028634     -0.012278
Li	      8.33372      4.18004      4.27061         0.019741      0.050264      0.039890
Li	      6.23298      6.20457      4.32411         0.020964     -0.042509      0.002165
Li	      8.23266      6.25912      6.23037        -0.029818      0.002654     -0.010541
Li	      6.21406      4.16170      6.26513        -0.010548      0.018838     -0.025646
Li	     10.34171      8.31389     10.45336         0.004431      0.001988     -0.026898
Li	      4.25532      6.18343      6.16985         0.012747     -0.018073     -0.045991
Li	      4.23287      4.12451      8.31372         0.032935      0.017397     -0.031350
Li	      6.25639      6.16343      8.27070         0.008866     -0.021364     -0.050247
Ti	      2.20110      6.16961      8.32280         0.354139     -0.071473      0.091157
Mn	      8.22125      4.20348      8.28245        -0.175102      0.141971     -0.223615
Fe	      4.21403      8.25109      8.30917        -0.103037      0.000749      0.211215
Cu	      6.22656      2.05392      4.27578         0.021975      0.076500     -0.270659
Cu	      4.13070      4.15339      4.21818        -0.038895      0.016488      0.075725
Ni	      8.31914      8.30414     12.47321         0.223106      0.034358      0.002020
Ni	     10.30574      6.26834      8.32811         0.101398      0.138109     -0.439123
Ni	      8.26586      6.22882     10.41058        -0.009716      0.016293      0.009544
Ni	      6.23096      8.24278      6.20757        -0.087179      0.144144      0.216078
O	      6.20551      6.37861      6.23081         0.002439     -0.198272      0.023275
O	      6.38264      6.30158     10.42875        -0.221213     -0.202089     -0.012206
O	      2.10430      2.08139      2.08738        -0.022471     -0.000689      0.040305
O	      4.10139      4.12421      2.14464        -0.052939      0.023629     -0.135019
O	      4.24129      2.12358      4.09979        -0.081190     -0.090206     -0.154666
O	      6.11910      4.14238      4.06327         0.157949      0.080908     -0.142237
O	      6.29705      2.10519      6.20609        -0.276404     -0.038504      0.792118
O	      8.30497      4.12548      6.41574         0.024422      0.044553      0.242069
O	      2.10829      4.25192      4.05883        -0.092007     -0.025355     -0.173595
O	      3.96303      6.15559      4.10022         0.106698      0.082844      0.064381
O	      3.99672      4.13891      6.16446         0.107999      0.009335      0.148857
O	      6.36336      4.13015      8.35779         0.098842     -0.082245     -0.073171
O	      8.29913      6.07382      8.33062         0.008348     -0.166974     -0.110389
O	      2.07294      6.13789      6.38532        -0.018321     -0.029507      0.274359
O	      4.24748      8.27185      6.34719        -0.077873      0.007221     -0.009728
O	      4.04488      6.25299      8.42846        -0.259098     -0.057769      0.005963
O	      6.21682      8.40474      8.37260         0.093547      0.069947     -0.142847
O	      8.25743      8.15252     10.46091         0.148555      0.038206     -0.148911
