# total energy = -199.11493927 eV
 
CRYSTAL
PRIMVEC
-0.001774 6.226249 6.330620 
6.117592 0.002681 6.326735 
4.079461 4.149129 0.000468 
PRIMCOORD
36 1
Li	      6.09418      6.22193     12.51801        -0.038216     -0.053115     -0.110041
Li	     10.13957      6.32757      8.52027        -0.090465      0.101638      0.063721
Li	      6.06081      6.22355      4.26414         0.005525      0.019824      0.073910
Li	      6.09821      4.22570      6.50250        -0.030779      0.075936      0.107986
Li	      6.10900      4.18148     10.41823         0.012122      0.075219     -0.032840
Li	      8.13335      6.22085     10.46998         0.010769      0.014286     -0.139663
Li	      4.08587      6.21872      6.30238         0.054131      0.031257     -0.021382
Li	      4.21112      4.11905      8.49608         0.111008     -0.113213      0.029093
Li	      6.17273      6.11943      8.49668         0.031075     -0.036601     -0.029812
Ti	      8.06276      2.07397      6.25984         0.016823      0.229294     -0.423651
Mn	      4.07996      4.20869      4.23338        -0.119425      0.162648      0.278590
Fe	      6.07144      8.28249      6.29556        -0.167714     -0.184972      0.062328
Cu	      2.02796      0.02754      2.10201         0.014664      0.076570     -0.019774
Cu	      4.07376      8.28449      8.44116         0.175750     -0.265124     -0.013971
Cu	      8.17782      6.22288      6.37256         0.066541     -0.028715      0.081163
Ni	      6.14536      8.25548     10.51107         0.062351     -0.211811     -0.046368
Ni	      4.10320      6.22710     10.54396         0.140791     -0.046657      0.089069
Ni	      8.10003      4.20560      8.46555        -0.119250     -0.123575     -0.060100
O	      6.18682      4.13165      8.47073        -0.101074     -0.053458      0.000817
O	      8.17577      6.16324      8.32502         0.081133      0.164268     -0.149344
O	      3.99056      6.29952      8.51375         0.008346      0.234144     -0.046361
O	      2.09759      2.07443      2.00125        -0.068027      0.273652      0.102648
O	      4.03832      4.07743      2.28493         0.020156     -0.139786      0.072400
O	      4.10023      2.12791      4.20509        -0.227386      0.174569      0.392797
O	      6.05466      4.08474      4.11213        -0.113292      0.200332     -0.256741
O	      6.14076      2.06772      6.29108         0.253343     -0.064972      0.074335
O	      8.15418      4.06353      6.33030         0.005648     -0.417066     -0.010154
O	      2.14571      4.16538      4.27156         0.150410     -0.011599      0.043806
O	      4.09869      6.03313      4.23787        -0.008638     -0.149174     -0.014710
O	      4.04896      4.11866      6.17685         0.074096      0.309727     -0.292285
O	      6.24607      6.31543      6.34904        -0.053936      0.038787     -0.046243
O	      2.02106      6.29439      6.43795        -0.079606     -0.063517      0.179384
O	      4.05237      8.29275      6.38207         0.017050     -0.012502     -0.206280
O	      6.06645      8.41089      8.37200        -0.194947     -0.030470     -0.137471
O	      6.08870      6.29422     10.50308         0.017617     -0.097924      0.080742
O	      8.17226      8.30324     10.67337         0.083404     -0.077898      0.324402
