# total energy = -200.57269347 eV
 
CRYSTAL
PRIMVEC
0.025316 6.427970 6.336876 
6.078793 0.062466 6.299519 
4.067325 4.276179 0.026493 
PRIMCOORD
36 1
Li	      2.00003      0.04660      2.07137        -0.013197      0.001939      0.009835
Li	      6.11794      8.62190     10.51144        -0.044674      0.012306     -0.018281
Li	      4.07501      6.45127      2.19147         0.042039     -0.060827     -0.009795
Li	      8.09517      4.39030      8.47991         0.054443     -0.026356      0.039164
Li	      4.07463      4.31656      4.21954         0.012995     -0.034272      0.046428
Li	      8.15323      6.53802      6.45036         0.056493      0.015481      0.006059
Li	      0.01822      4.13206      4.07187        -0.015761      0.004015      0.021565
Li	      4.07817      6.28717      6.26761        -0.014105     -0.030256     -0.033016
Li	      8.19918      8.49887      8.41562        -0.009169      0.037627      0.008278
Ti	      4.04435      6.46956     10.49736        -0.101367     -0.047660      0.041734
Mn	      6.07467      0.12277      6.31092         0.011456      0.060486     -0.044559
Fe	      2.19025      4.19696      6.32466        -0.237740      0.019028     -0.148004
Cu	      4.04526      2.20166      2.08552         0.052981      0.111180      0.141927
Cu	      6.03033      6.43782      4.21048        -0.157336     -0.022512      0.148844
Cu	      2.08754      6.34182      4.20514         0.344921     -0.112998      0.103904
Cu	      6.14931      6.42824      8.45371        -0.008159     -0.085696      0.151490
Cu	      2.04246      2.16152      0.02854        -0.083096     -0.002277     -0.197072
Ni	      6.06599      4.38822      6.41395         0.052672     -0.144893     -0.145555
O	      4.11167      6.52932      8.58096         0.113446     -0.090705      0.040613
O	      6.04274      8.51671      8.39134         0.080661     -0.265893      0.065771
O	      8.10766      8.84774     10.74136         0.046131      0.192525     -0.096727
O	      2.09091      2.11268      1.88050        -0.082043     -0.013655      0.250950
O	      4.09199      4.19836      1.92384        -0.038278      0.139805      0.018668
O	      3.90638      2.12891      4.06660         0.327068     -0.012179     -0.010586
O	      6.14893      4.47063      4.31069         0.151067     -0.202420     -0.108086
O	      6.23900      2.06786      6.35962        -0.050525     -0.026198      0.029261
O	      8.23394      4.59123      6.20786         0.017228      0.049179     -0.065320
O	      1.99374      4.04165      4.31711         0.076210      0.296935     -0.076356
O	      4.11248      6.40142      4.20335        -0.350595     -0.092482      0.097583
O	      4.06468      4.24838      6.34648         0.076072     -0.003122      0.041589
O	      6.06767      6.47322      6.49241        -0.034073      0.165911     -0.487964
O	      6.10760      4.46199      8.38829         0.001015      0.148288      0.200989
O	      8.08698      6.48418      8.63283        -0.080210      0.017883     -0.006843
O	      1.95122      6.20913      6.17272         0.057904     -0.051962     -0.045745
O	      3.97904      8.77694      6.39645        -0.055635      0.031192     -0.142343
O	      6.06968      6.57889     10.66047        -0.198839      0.022582      0.171602
