# total energy = -92.59560367 eV
 
CRYSTAL
PRIMVEC
2.172765 4.304880 2.132081 
4.245593 -2.115410 -2.105765 
0.010126 4.295648 -4.255865 
PRIMCOORD
16 1
Li	      2.21616      2.22546      0.00975         0.005011      0.043725     -0.068726
Li	      4.34986      2.28650     -2.18988        -0.141914      0.374085     -0.061302
Li	      2.22002      4.43626     -2.18183         0.080725     -0.022651     -0.043559
Li	      4.46415      4.41083     -4.34589         0.062760     -0.249085      0.180271
Mn	      0.00405      0.12081     -0.11263         1.965028     -0.849760      1.293161
Mn	      2.25263      0.15528     -2.12997        -0.647990     -0.468029     -1.184334
Ni	      0.19666      2.29279     -2.20506        -1.087231      0.023907     -0.155655
Ni	      2.19819      2.21589     -4.35618         0.221262      0.167712      0.710291
O	      4.40425      4.46079     -2.03051        -0.033012     -0.123545      0.755966
O	      4.40899      2.23746     -4.50419        -0.286063      0.250582      0.100372
O	      4.55699      2.36116      0.02311        -0.800888      0.614414     -0.671289
O	      4.24578     -0.08719     -2.17422        -0.689112      1.256299      0.015727
O	      2.35722      4.43710      0.11434         0.426829     -0.030920     -0.880148
O	      2.19726      2.05078     -2.18549         0.686840      0.032588     -0.158094
O	      2.24304      6.82661     -2.18040         0.266376     -0.739462     -0.192951
O	      2.08286      4.43986     -4.48031        -0.028621     -0.279861      0.360268
