# total energy = -207.08381990 eV
 
CRYSTAL
PRIMVEC
-0.002634 6.287699 6.218927 
6.135195 0.033257 6.182860 
4.101841 4.179285 0.010618 
PRIMCOORD
36 1
Li	      6.18544      6.39539     12.35865        -0.005759      0.000882      0.037400
Li	      8.08834      2.08385      6.18715         0.000658      0.013885      0.039573
Li	      6.18004     10.39642      8.25020        -0.010711     -0.045042     -0.053812
Li	      6.17517      8.43980     10.34319         0.000111     -0.005875     -0.051886
Li	      6.13710      6.22243      4.20583         0.004863      0.010724     -0.058810
Li	      6.13987      4.20099      6.16478        -0.011992     -0.020514      0.060166
Li	      2.07752      4.24009      6.27046        -0.010658      0.001561      0.087602
Li	      4.08861      6.22522      6.25331         0.016124     -0.008847      0.034706
Li	      8.08503      8.48430      8.27768        -0.086733      0.054980     -0.031966
Ti	      8.18092      6.25835      6.18803        -0.034085     -0.061948     -0.019779
Mn	      4.16813      4.20955      4.16282        -0.001498      0.005081      0.109682
Fe	      4.10678      8.34917      8.12989         0.054488     -0.005385      0.154809
Fe	      4.07930      8.37695      4.26086         0.102359     -0.128381      0.054610
Co	      2.07264      4.19078      2.08118         0.014765     -0.222174     -0.281429
Cu	      2.01588      6.33856      4.24697         0.012145     -0.046373     -0.082458
Ni	      8.10933      4.15042      4.14147        -0.010543     -0.012164      0.191273
Ni	      0.07268      2.10516      2.03350         0.152792      0.024523      0.048589
Ni	      6.10576      6.30108      8.25766        -0.092299      0.126239     -0.016283
O	      2.04598      6.29442      6.15314        -0.000830     -0.049299      0.061175
O	      2.13770      2.27177      2.05619        -0.259951      0.217183      0.068895
O	      4.00928      4.15896      2.20727         0.110904      0.082483     -0.164498
O	      4.08033      2.21499      4.17524         0.019113     -0.003453      0.158537
O	      6.03387      4.22616      4.09029        -0.080771     -0.004524      0.042417
O	      6.02716      2.13438      6.25628        -0.111717     -0.024573     -0.203706
O	      8.19430      4.29411      6.22808         0.020684      0.233503      0.012819
O	      2.10318      4.27119      3.98600         0.122139     -0.086459      0.252475
O	      4.05728      6.20995      4.09806         0.117030     -0.143539      0.088513
O	      4.10575      4.12933      6.05218        -0.078649     -0.109905      0.024627
O	      6.26597      6.29167      6.26595         0.176366     -0.026261     -0.204240
O	      6.29645      4.18763      8.41179        -0.009726      0.048742     -0.209584
O	      8.21511      6.18983      8.23225         0.019605      0.080544      0.047386
O	      4.11700      8.35478      6.19573         0.035276      0.006514     -0.248382
O	      4.06859      6.38301      8.37085        -0.111845     -0.154226     -0.109282
O	      6.00240      8.36185      8.27361         0.204661      0.046773      0.051780
O	      6.14753      6.22318     10.30365        -0.110025      0.091029      0.113867
O	      8.25775      8.36195     10.30501        -0.156294      0.114295     -0.004785
