# total energy = -206.96868089 eV
 
CRYSTAL
PRIMVEC
0.001013 6.280872 6.190640 
6.242911 0.013119 6.178433 
4.173717 4.191353 -0.003292 
PRIMCOORD
36 1
Li	      2.17630      8.32500      6.28918         0.019620     -0.050260      0.035992
Li	      2.09293      6.33396      8.07024         0.035939      0.037509     -0.022634
Li	      0.02470      2.09645      2.07336         0.038176     -0.034594      0.006582
Li	      6.15115      6.34689      4.15684        -0.030074      0.014865     -0.027514
Li	      4.10035      4.29702      4.21879        -0.007146      0.021818     -0.051321
Li	      4.12037      2.20931      6.21729        -0.017241      0.005683      0.022744
Li	      2.10158      4.24275      6.21496        -0.019504     -0.000700      0.034467
Li	      4.15763      6.22770      6.11646         0.004842      0.021276      0.026813
Li	      4.14655      4.17739      8.10291        -0.024158      0.000293     -0.001752
Ti	      6.23985      2.21581      4.17205         0.006283      0.143796      0.082757
Mn	      4.16539      0.02484      4.13783        -0.073706     -0.007397     -0.112296
Fe	      2.22595      6.22118      4.16782         0.023981      0.050567      0.021720
Fe	      6.26476      6.29727      8.10087        -0.102951      0.086723      0.023815
Co	      4.13648      2.09484      2.04411         0.153947      0.011178     -0.011780
Cu	      2.12265      4.13410      2.08248         0.008369      0.056285      0.072690
Cu	      6.17997      4.21745      6.22794         0.012252     -0.070412     -0.072460
Ni	      4.19767     10.42226      6.24400         0.021827      0.113341      0.132233
Ni	      4.19329      8.31085      4.17887        -0.069267     -0.021013      0.107179
O	      4.25038      4.17966      6.18650        -0.128171     -0.016212     -0.030763
O	      2.24716      2.16038      2.08947        -0.000619     -0.057000     -0.005580
O	      4.10186      4.02064      2.06077         0.052905     -0.065872      0.101818
O	      4.26907      1.98039      4.03435         0.028693     -0.125372     -0.001210
O	      6.36550      4.11728      4.15486         0.162038     -0.106742     -0.123894
O	      6.23661      2.08338      6.06296        -0.041466     -0.019263     -0.243327
O	      8.31341      4.19822      6.06884        -0.073086      0.006293     -0.029318
O	      2.03739      4.23310      4.08039         0.116584     -0.034892      0.002316
O	      4.11000      6.32974      4.07518         0.101875     -0.089059     -0.005595
O	      6.24130      6.20177      6.22145         0.035254      0.094490     -0.125915
O	      6.32413      4.23834      8.23111        -0.040723     -0.059191      0.000636
O	      8.23978      6.23414      8.34577         0.073406      0.030346     -0.061177
O	      2.03117      6.29899      6.06068         0.074862      0.021607      0.120996
O	      4.19625      8.41777      6.28559        -0.046557     -0.108194      0.075832
O	      4.20340      6.40086      8.38471        -0.006522      0.006286      0.014899
O	      6.14880      8.32257      8.35681        -0.016847     -0.026896      0.073611
O	      6.15428      6.31754     10.30872        -0.136825      0.058463     -0.089784
O	      8.26020      8.48001     10.22954        -0.135994      0.112250      0.059219
