# total energy = -207.68361331 eV
 
CRYSTAL
PRIMVEC
0.001581 6.180265 6.284144 
6.299757 0.018856 6.266319 
4.188690 4.097503 0.024235 
PRIMCOORD
36 1
Li	      0.02265      6.15894      6.25302         0.066214     -0.045246     -0.054269
Li	      4.28625      8.21000      8.40124        -0.016834      0.017362      0.014575
Li	      2.07754      4.14703      2.20019        -0.006258     -0.028916      0.101365
Li	      6.24478      6.22828      4.27022         0.009399     -0.017654      0.054968
Li	      2.09266      6.08801      4.13003         0.051939      0.005672      0.033606
Li	      6.25252      8.20478      6.29293         0.007594      0.050832     -0.045996
Li	      4.30206      6.14581      6.30824        -0.008143      0.004135     -0.026626
Li	      8.34863      8.26614      8.41784        -0.009268      0.001311      0.010478
Li	      6.28132      6.17697      8.35694        -0.004742     -0.034705     -0.001654
Ti	      2.21034      8.15910      6.30226         0.517848     -0.841767      0.102617
Mn	      4.12109      4.12881      4.19321         0.058650     -0.091400      0.185718
Fe	     10.43337      6.20387      8.39938         0.040779     -0.064664      0.182537
Fe	      8.26578      6.15114      6.37146        -0.210511      0.195513     -0.096080
Co	      4.17240      6.19517     10.42711        -0.053921      0.243858     -0.318517
Cu	      2.14310      6.15885      8.34825         0.065648      0.061932     -0.051887
Cu	      6.28396      8.20203     10.44161        -0.041997     -0.053738     -0.210324
Cu	      6.36714      4.20386     10.41935         0.045164     -0.129676      0.185986
Ni	      6.28239      4.15279      6.32643        -0.184153      0.238678     -0.065826
O	      6.29913      8.35039      8.45763        -0.053794      0.089866     -0.023488
O	      6.09435      6.22551     10.41616         0.004284     -0.144573     -0.039682
O	      2.06575      2.01782      1.97486        -0.082697     -0.180469     -0.489532
O	      4.23992      4.14602      2.25332         0.157892     -0.075613     -0.030941
O	      4.27064      2.04741      4.24378        -0.060907      0.014899      0.231032
O	      6.33046      4.05537      4.20188         0.067167      0.129128      0.297463
O	      6.33797      2.09931      6.27950        -0.032361     -0.227538      0.254921
O	      8.35666      4.10045      6.15387         0.140709     -0.118588     -0.001900
O	      2.27332      4.10552      4.19581        -0.069841     -0.023600     -0.061903
O	      4.20902      6.03578      4.15161         0.008191      0.210135     -0.088668
O	      4.23819      4.06351      6.12723        -0.043346     -0.019441     -0.117833
O	      6.33856      6.14025      6.32597         0.126440      0.096766      0.093131
O	      6.32968      4.06002      8.48350         0.075141      0.098104      0.084890
O	      8.46704      6.17857      8.31023         0.060291     -0.012041     -0.053715
O	      2.08176      6.27725      6.29359        -0.058903      0.753634     -0.414664
O	      4.10647      8.24746      6.14396        -0.439693      0.047298     -0.163309
O	      4.12092      6.20285      8.52696        -0.131094      0.050472      0.321515
O	      8.27199      8.37487     10.54325         0.005112     -0.199963      0.202014
