# total energy = -206.52202728 eV
 
CRYSTAL
PRIMVEC
0.002427 6.083349 6.356378 
6.357280 0.038140 6.322079 
4.263410 4.057749 -0.000747 
PRIMCOORD
36 1
Li	      2.13769      8.03022      6.37964         0.030973     -0.041664      0.067848
Li	      2.25405      6.07597      8.44360         0.018539      0.034907      0.029965
Li	      4.42239      8.06745      8.49703        -0.013489     -0.011861      0.043140
Li	      6.42736      8.11613     10.43351        -0.048263      0.058188     -0.031568
Li	      6.33039      6.06374      4.19400         0.084105     -0.002084     -0.034523
Li	      2.14186      6.14043      4.31564        -0.074221     -0.036460      0.029336
Li	      4.18235      6.15606      6.45357         0.015643     -0.037934      0.079527
Li	      8.38371      8.17316      8.55522        -0.027263      0.007174     -0.017431
Li	      6.26374      6.19967      8.41914         0.049784      0.014551     -0.045421
Ti	      2.08687      3.99537      2.26847         0.133694     -0.413738      0.099185
Mn	      4.28754      6.08454     10.52237        -0.075079      0.336440     -0.285632
Fe	      4.23729      2.10545      6.29197        -0.037343      0.096450      0.108548
Fe	      6.34500      4.14523      6.23864        -0.028489      0.036753      0.131103
Co	      4.26312     10.10118      6.37363         0.055944     -0.012259     -0.028862
Cu	      6.34228      2.06532      8.42220         0.133319      0.111398      0.051689
Cu	      4.29837      4.06360      4.15554        -0.076849      0.093450     -0.251975
Cu	      4.17888      8.04936      4.31577         0.135581     -0.175592     -0.154061
Cu	      6.30207      8.14643      6.46625         0.139479     -0.096706      0.000980
O	      1.90679      6.00208      6.36935        -0.054421     -0.087509     -0.015737
O	      4.27923      8.19828      6.45778        -0.160100      0.129482     -0.214510
O	      6.43369      8.13895      8.37309         0.069979      0.013481      0.166993
O	      2.03339      2.11506      2.09019         0.124283      0.377033      0.032597
O	      4.10559      4.08442      2.05869        -0.250264     -0.464016      0.003699
O	      4.29773      2.03700      4.29014         0.057679     -0.422342     -0.020756
O	      6.62977      4.05476      4.32140        -0.010545     -0.019973     -0.116840
O	      6.30736      2.02002      6.39848         0.037336     -0.131370     -0.141579
O	      8.59434      4.11755      6.27215        -0.158441     -0.024523      0.011114
O	      1.94379      4.06893      4.12395        -0.265343     -0.043623      0.019508
O	      4.21488      6.03839      4.07231        -0.059316      0.375236      0.372478
O	      4.34998      4.10873      6.16453         0.060336      0.166451      0.057211
O	      6.46613      6.13830      6.32225        -0.083018      0.120461     -0.066766
O	      6.51071      4.06993      8.20598         0.099785      0.498965     -0.069461
O	      8.56851      6.03889      8.31419        -0.224885     -0.044048      0.021874
O	      4.29603      6.11353      8.68527         0.033693     -0.040574      0.145586
O	      6.23557      6.06409     10.76788         0.171045     -0.078885     -0.002708
O	      8.58206      8.24070     10.58955         0.196133     -0.285260      0.025451
