# total energy = -209.29364234 eV
 
CRYSTAL
PRIMVEC
-0.028155 6.123737 6.496871 
6.090959 -0.028626 6.496020 
4.070927 4.093294 -0.029991 
PRIMCOORD
36 1
Li	      4.12817     10.16121      6.60301         0.014010      0.026985      0.098811
Li	      2.00174      1.93898      0.27743        -0.016084     -0.046582      0.078233
Li	      6.07585      4.08712      2.20483        -0.081887      0.068778      0.054772
Li	      4.02091      2.13233      2.10933        -0.032365      0.026557      0.002898
Li	      3.99639      6.09666     10.69003        -0.009861      0.009161     -0.065689
Li	      6.09384      8.12760     10.80302        -0.013403      0.011736     -0.001543
Li	      4.07945      6.08242      2.21135         0.090953     -0.062717      0.049940
Li	      4.06170      4.12851      4.10083         0.028797      0.054311     -0.024606
Li	      3.99359      6.17626      6.54416        -0.004923      0.015974      0.015853
Ti	      4.15302      1.93668      6.27657         0.467377      0.251222     -0.392687
Mn	      4.05990      4.04914      8.63773        -0.084585      0.005170      0.037585
Fe	      6.08538      4.09372      6.27035        -0.290486     -0.163578      0.160683
Fe	      4.03050      8.21015      4.54352        -0.008997     -0.062418     -0.027698
Co	      8.16286      4.04118      8.57240         0.167930     -0.310633     -0.211938
Co	      6.08086      8.18493      6.49402         0.104506     -0.014319      0.210033
Cu	      2.03659      6.14166      4.47936         0.085770      0.050848      0.067935
Cu	      6.03700      6.12024      8.68451        -0.109632      0.117832      0.027130
Ni	      1.99596      2.04304      4.27017        -0.057381      0.104951     -0.071716
O	      2.02891      5.96898      6.54018         0.048979      0.100523     -0.065925
O	      2.01518      2.20610      2.26657        -0.022215      0.349861     -0.327600
O	      3.88207      4.11469      2.15727        -0.207803      0.034617     -0.086939
O	      4.06518      2.02479      4.44185         0.172044     -0.076793      0.468926
O	      6.03905      4.12904      4.37853         0.088055     -0.245812     -0.170533
O	      6.02957      2.10519      6.45235        -0.334763     -0.004417     -0.055635
O	      8.05192      4.13876      6.46264         0.282932     -0.109067      0.704054
O	      2.00314      4.11747      4.56439         0.075271     -0.072171     -0.279791
O	      4.00832      6.25225      4.30860        -0.092495     -0.040159      0.005809
O	      4.02426      3.99446      6.66097        -0.011206     -0.011705     -0.017821
O	      6.16112      6.17914      6.34142        -0.051466     -0.027107      0.107173
O	      6.05548      4.11962      8.51807         0.039333     -0.081264     -0.009765
O	      8.03271      6.09688      8.45658         0.058537     -0.018482     -0.001444
O	      4.15832      8.15715      6.48401        -0.060164     -0.005382      0.085341
O	      4.08588      5.93330      8.66691         0.001838     -0.106595     -0.052073
O	      6.20059      8.10172      8.46614         0.021398      0.050966     -0.112330
O	      6.17173      6.02822     10.85288        -0.154474     -0.008159     -0.084859
O	      8.15356      8.07565     10.53323        -0.103541      0.187869     -0.114582
