# total energy = -210.07964835 eV
 
CRYSTAL
PRIMVEC
0.011237 6.058214 6.395573 
6.169786 0.031215 6.375250 
4.151509 4.061903 -0.015893 
PRIMCOORD
36 1
Li	      4.11042      8.10549      8.39974         0.030843     -0.063101      0.086282
Li	      8.26324     10.08838     10.64506         0.024658     -0.027279     -0.118005
Li	      8.20688      4.11369      8.48667         0.057348     -0.059226      0.079558
Li	      4.10869      4.08876      4.40973        -0.001946      0.003650      0.022328
Li	      8.23021      6.11277      6.41160         0.028243      0.035790      0.028884
Li	      6.16819      4.11245     10.60048        -0.039461     -0.000219     -0.040519
Li	      2.18230      4.01529      6.44183         0.116413     -0.005510      0.053190
Li	      4.15865      4.06065      8.42715        -0.053910      0.066402      0.098703
Li	      6.22551      6.04527      8.52917        -0.057481      0.045123     -0.027917
Ti	      6.02952      2.09541      4.11955         0.138311     -0.004854     -0.560538
Mn	      2.13216      6.03846      4.22664        -0.097854      0.077650     -0.107271
Fe	      2.09566      2.12504      4.30640         0.124323     -0.174330     -0.345068
Fe	      6.17169      4.07346      6.52794        -0.102099      0.266300     -0.189600
Co	      8.23828      8.11570     12.71748        -0.026574      0.626087      0.385561
Co	      2.10469      6.06464      8.49183        -0.501269     -0.037309      0.294558
Cu	      4.11050      4.03189     -0.00082        -0.236422     -0.125218     -0.249034
Cu	      4.12986      6.09297      2.15521         0.139255     -0.156547      0.087030
Cu	      4.16612      6.09194      6.45702         0.147505      0.201697     -0.040475
O	      3.95873      8.12534      6.35841         0.206801     -0.337817      0.214394
O	      3.95136      6.07768      8.45203         0.063135      0.111650     -0.086422
O	      2.01041      1.92344      2.02003        -0.086678      0.094266      1.033158
O	      4.31795      4.11630      1.96294         0.392713      0.022494      0.126506
O	      4.15858      2.02442      4.24023         0.085713     -0.012353      0.048881
O	      6.19901      4.06179      4.27691         0.004209     -0.014636     -0.220581
O	      6.25749      2.03327      6.18969         0.014537      0.216031      0.006562
O	      8.16247      3.96170      6.37145         0.435892      0.278881      0.007133
O	      2.10725      4.05238      4.25302        -0.060198      0.275114     -0.004139
O	      4.13294      6.08867      4.38708        -0.157778      0.061379     -0.002941
O	      4.23053      4.10789      6.41177        -0.199959     -0.235505     -0.009857
O	      6.24155      6.08255      6.26252         0.134085      0.043590      0.169911
O	      6.18896      4.01663      8.43383         0.084765      0.096745      0.292347
O	      8.34427      6.09165      8.72867        -0.059026     -0.025898      0.017977
O	      2.11363      6.13222      6.23842        -0.418806     -0.640755     -0.012088
O	      6.20446      8.17994      8.62050        -0.044048     -0.173116      0.282990
O	      6.32226      6.17572     10.65315         0.036232     -0.125686     -0.100762
O	      8.18662      8.02736     10.77889        -0.121473     -0.303491     -1.220736
