# total energy = -208.15760601 eV
 
CRYSTAL
PRIMVEC
-0.009675 6.231451 6.083282 
6.336755 -0.072060 6.146016 
4.198812 4.170807 -0.022820 
PRIMCOORD
36 1
Li	      2.19178      6.17364      8.14135         0.058532     -0.085874     -0.050131
Li	      4.25700      8.29460      8.16321         0.084601      0.020674     -0.079400
Li	      4.13057      6.19213     10.07163        -0.011181      0.012943     -0.027702
Li	      2.12913      4.19932      2.02410        -0.024270      0.004871     -0.019373
Li	      4.25277      4.06976      4.09264         0.002513      0.001230      0.031855
Li	      6.41408      8.25229      6.16925         0.027990      0.007321      0.071106
Li	      4.27190      6.16596      6.19949        -0.032519      0.051679      0.024480
Li	      8.37494      8.29724      8.13154        -0.073320      0.002199      0.025023
Li	      6.19968      6.24662      8.07001        -0.054677      0.094074      0.045592
Ti	      2.16700      2.09732      0.11079         0.051532      0.020287      0.366982
Mn	      6.33494      4.07843     10.14963         0.131576     -0.058924     -0.128302
Fe	      6.21462      4.21818      6.14912         0.034362     -0.160687      0.104584
Fe	      8.46074      6.12135     10.10835        -0.064778     -0.016583     -0.041526
Co	      4.18866      4.15611     -0.00034         0.122683     -0.030279      0.202269
Co	      6.17020      2.14470      3.93422         0.082727      0.261251      0.652133
Ni	      4.18026      6.20789      1.99378         0.062731      0.028412     -0.039949
Ni	      8.37599      6.21765      6.14366         0.090338      0.001734      0.015220
Ni	      2.15435      2.04659      4.05584        -0.079607      0.078729     -0.284277
O	      4.20463      6.22116      8.13006         0.036028      0.017447      0.023732
O	      2.08710      2.06230      1.97760         0.058189      0.034981     -0.454566
O	      4.20750      4.19935      1.81012        -0.071215     -0.087247     -0.080443
O	      4.22061      2.04078      4.11525         0.757383     -0.083087     -0.041271
O	      6.28523      4.12092      4.15372        -0.089856     -0.743353     -0.204440
O	      6.39972      2.02818      6.01063        -0.088743      0.157909     -0.274192
O	      8.38259      4.00454      6.11564        -0.009395     -0.144383     -0.002515
O	      1.93655      4.17326      4.07739        -0.089783     -0.028680      0.061258
O	      4.19318      6.37146      4.03232        -0.026789      0.067056      0.115271
O	      4.29093      4.10201      6.15223        -0.028151      0.045114      0.029879
O	      6.36245      6.14486      6.06196        -0.098955      0.080146      0.046718
O	      6.32892      4.05768      8.22071         0.005827      0.097620      0.151288
O	      8.47936      6.15110      8.18896        -0.070774     -0.019874      0.009741
O	      2.02841      6.37611      5.99890        -0.063338      0.081017      0.054672
O	      4.09201      8.35580      5.97368        -0.152186     -0.027201     -0.045332
O	      6.32645      8.26940      8.26728        -0.268993      0.074814     -0.070821
O	      6.37531      6.05497     10.32830        -0.019392      0.188316     -0.186248
O	      8.55914      8.18736     10.23616        -0.189089      0.056347     -0.001311
