# total energy = -212.42471457 eV
 
CRYSTAL
PRIMVEC
0.009116 6.246510 6.108053 
6.240838 -0.023710 6.141085 
4.150150 4.175819 -0.005556 
PRIMCOORD
36 1
Li	      4.19639     10.28020      6.05043        -0.014311     -0.005613     -0.023605
Li	      6.07091      6.37385      4.15947         0.008102      0.020538      0.071823
Li	      4.07065      4.30084      4.14621        -0.045690     -0.022983      0.056498
Li	      4.15524      2.16626      6.00769         0.018733     -0.015967      0.008116
Li	      4.19150      8.17652      4.23825         0.021178      0.016675     -0.069270
Li	      2.22560      6.21569      4.18050        -0.059515     -0.056991      0.063768
Li	      2.07882      4.22852      5.93579         0.022496      0.072499     -0.009567
Li	      4.11863      6.26104      5.94673        -0.030385     -0.059340      0.035391
Li	      4.24631      4.15301      8.11603         0.041779      0.052289     -0.040512
Ti	      6.34029      6.33327      8.13958         0.150695      0.102743     -0.140408
Mn	      6.18085      4.18437      6.09601         0.198369      0.168756     -0.041731
Fe	      2.05685      6.24032      8.07394         0.091490     -0.212207      0.105028
Fe	      2.16364      4.14082      2.19434        -0.089094      0.061628     -0.359978
Co	      8.28985      2.06154      6.13382         0.620886     -0.402149     -0.223538
Co	      8.34914     10.39078     10.22138        -0.024961      0.039271      0.220212
Co	      6.27385      8.29576     10.21220        -0.096435      0.012844     -0.030848
Cu	      4.14989      8.29018      8.12930         0.097640     -0.090526      0.057958
Cu	     10.28621      6.22934      8.27288        -0.140743     -0.036235     -0.242327
O	      4.14458      6.25770      4.00069         0.049153     -0.000857      0.245644
O	      1.89187      2.05833      1.94275        -0.014190      0.084616      0.142808
O	      4.17732      4.01981      2.04773        -0.059374      0.123551      0.022781
O	      4.32836      1.89602      4.03269         0.074492     -0.038041     -0.006284
O	      6.37800      4.02848      4.11285        -0.000384      0.006523      0.023636
O	      6.30958      2.21015      6.05724        -0.521036      0.106422      0.065147
O	      8.21201      4.04036      6.09051        -0.206146      1.155003     -0.007462
O	      2.06436      4.14739      4.02495        -0.037215     -0.034506      0.212275
O	      4.36416      4.14219      6.10066        -0.094171      0.044618     -0.024927
O	      6.23332      6.14897      6.20374        -0.011125      0.020887      0.128720
O	      6.29607      4.31707      8.02416        -0.000905      0.045358     -0.013493
O	      8.23961      6.17595      8.17875        -0.210231      0.042203      0.002660
O	      2.06060      6.36143      6.18699        -0.171312     -1.122598     -0.059729
O	      3.97038      8.31259      6.18429         0.267737      0.106602     -0.060580
O	      4.18793      6.25804      8.30433         0.035755     -0.164260     -0.006530
O	      6.40494      8.30447      8.23515         0.005549     -0.083065      0.028800
O	      6.13033      6.34100     10.14511         0.059876      0.030172     -0.052011
O	      8.21630      8.43755     10.32960         0.063297      0.032140     -0.078463
