# total energy = -203.96388463 eV
 
CRYSTAL
PRIMVEC
0.024279 6.095940 6.205376 
6.311536 -0.018258 6.248165 
4.207054 4.092044 -0.011644 
PRIMCOORD
36 1
Li	      6.37831      6.09707     12.40268         0.061158      0.018364     -0.094026
Li	      8.32064      2.03455      6.21417        -0.050767     -0.033738      0.009701
Li	      6.35768      2.00865      4.23228         0.032284     -0.030637      0.060413
Li	      6.33589      2.03232      8.26066         0.048877     -0.025921      0.000414
Li	      2.14986      2.06360      4.10330        -0.049538     -0.016406      0.007852
Li	      4.28631      2.00727      6.26752         0.073740     -0.017779      0.002446
Li	      6.29960      4.10206     10.36038        -0.030804     -0.009117      0.027953
Li	      8.35671      6.11320     10.35262        -0.036537      0.004678      0.044802
Li	      2.11286      4.07126      6.18797        -0.013425      0.001620     -0.049833
Ti	      4.17999      6.21956      6.10721        -0.104126      0.421120     -0.417422
Mn	      4.17712      4.00361      4.16744         0.049100      0.108079     -0.019223
Fe	      2.07615      0.03454      2.07905        -0.151512     -0.072608      0.022624
Fe	      8.47879      4.03533      4.27156         0.154111      0.183450      0.019866
Cu	      6.35759      6.10170      8.33226         0.115567      0.196097      0.047641
Ni	      4.24653      8.13774      8.27898        -0.030292      0.027164     -0.081264
Ni	      8.40946      4.04528      8.29930         0.083334     -0.162074     -0.052289
Ni	      6.31919      4.02363      6.24326         0.001669      0.088435     -0.101044
Ni	      8.44146      8.06474      8.33584        -0.035091     -0.012540     -0.046038
O	      2.15575      1.96889      2.07708         0.046365      0.477686     -0.011943
O	      4.24823      4.07459      2.19725        -0.062655      0.074615      0.135316
O	      4.19495      2.06338      4.13237         0.024105      0.102244      0.048070
O	      6.23804      4.08754      4.11252        -0.050598     -0.028285      0.151119
O	      6.30858      2.16879      6.26385         0.006839     -0.174555     -0.019314
O	      8.35508      4.08099      6.20086         0.017992      0.021123      0.162514
O	      2.30278      4.04491      4.09238         0.117079      0.022993      0.041383
O	      4.22406      5.99655      4.24818        -0.025331     -0.101287      0.256839
O	      4.27049      4.08363      6.11723        -0.118723      0.002419     -0.028025
O	      6.18563      5.97326      6.38002        -0.206053      0.045382     -0.422066
O	      6.31554      4.08333      8.24146        -0.055184     -0.092278      0.160506
O	      8.33863      6.07662      8.29657        -0.106896     -0.040351      0.016227
O	      2.24041      6.09575      6.33467         0.268484     -0.009910     -0.253021
O	      4.29459      8.06055      6.19783        -0.005599     -0.401907     -0.059994
O	      4.16436      6.06522      8.29676         0.145018     -0.088995     -0.011435
O	      6.34661      8.20874      8.24731         0.062596     -0.347156      0.030063
O	      6.24998      6.11167     10.26083        -0.151259     -0.000768      0.383390
O	      8.44650      8.23373     10.32876        -0.023925     -0.129156      0.037795
