# total energy = -204.57635632 eV
 
CRYSTAL
PRIMVEC
0.027972 6.061751 6.409539 
6.186120 0.028639 6.409072 
4.148058 4.065431 -0.005540 
PRIMCOORD
36 1
Li	     10.29963      4.12835      6.41235         0.032002     -0.053440      0.006938
Li	      6.24846      4.07306      2.18754        -0.026848      0.043771      0.015682
Li	      4.19061      6.05266      2.20883         0.025316     -0.070027      0.128932
Li	      6.16827      6.08455      4.32295        -0.150802      0.062066      0.038863
Li	      4.19596      4.16915      4.19647        -0.071134      0.138228     -0.002597
Li	      6.19965      4.09614      6.25939        -0.056071      0.030613      0.057365
Li	      2.17771      6.06643      4.37693         0.109453     -0.010580      0.088405
Li	      4.20740      6.05559      6.35137         0.001766      0.008264     -0.140447
Li	      6.22363      6.05091      8.53133         0.007134     -0.000404     -0.043955
Ti	      2.05757      4.15472      6.43882        -0.079048      0.272747     -0.603098
Mn	      4.12783      2.01231      6.32239        -0.175538      0.134198      0.068860
Fe	      4.11372      2.02789      2.20574        -0.160133      0.115182      0.038692
Fe	      6.21667      4.01577     10.60882         0.245872     -0.109479      0.232727
Cu	      6.22569      8.08920     10.64358         0.079832     -0.069495     -0.010345
Cu	      8.25033      4.10310      8.51734         0.091142     -0.008637      0.037935
Ni	      8.20969      2.03383      6.41208         0.127646     -0.078921     -0.028389
Ni	      8.25789     10.13592     10.63674         0.140943     -0.026744      0.158914
Ni	      4.19051      4.05025      8.55089         0.011025     -0.057366     -0.016454
O	      6.33088      4.06655      8.62955         0.013430      0.042607     -0.258026
O	      2.09599      2.18666      2.03786        -0.002351      0.006959      0.062616
O	      3.93968      4.01080      2.17520         0.047124     -0.019196     -0.057672
O	      4.05289      2.08904      4.31434        -0.029451      0.069278      0.094665
O	      6.33525      3.99493      4.20762        -0.250684     -0.185107      0.035959
O	      6.10735      2.04198      6.20161        -0.031729      0.012924     -0.052233
O	      8.23318      4.13776      6.14638         0.003010      0.119463      0.084828
O	      1.95184      4.13688      4.52179         0.275995      0.071942      0.527411
O	      4.18932      6.20954      4.30208        -0.017183     -0.465316     -0.001053
O	      4.08131      3.97663      6.50403        -0.113119     -0.156796     -0.090944
O	      6.36479      6.18419      6.41219         0.126739      0.050254      0.026769
O	      8.34016      6.00397      8.27027        -0.010264     -0.054253     -0.184371
O	      2.10371      6.03504      6.51554        -0.023372     -0.415987      0.058007
O	      4.23799      8.05985      6.56304         0.133337      0.045919     -0.006558
O	      4.14607      6.09484      8.72924         0.004588      0.097593     -0.220174
O	      6.20035      8.10593      8.57074         0.000677     -0.027174      0.016699
O	      6.05668      6.00919     10.68015         0.153685      0.530058     -0.039160
O	      8.42220      8.06077     10.66683        -0.432989     -0.043146     -0.024793
