# total energy = -92.30462931 eV
 
CRYSTAL
PRIMVEC
2.183313 4.325777 2.142431 
4.266203 -2.125679 -2.115987 
0.010175 4.316501 -4.276524 
PRIMCOORD
16 1
Li	      2.23773      2.24711      0.00984         0.002826      0.045589     -0.072488
Li	      4.39220      2.30875     -2.21120        -0.152890      0.426948     -0.078492
Li	      2.24162      4.47943     -2.20306         0.086403     -0.024411     -0.049331
Li	      4.50759      4.45376     -4.38819         0.073031     -0.276458      0.206718
Mn	      0.00413      0.14294     -0.13448         2.277337     -1.014341      1.505527
Mn	      2.28515      0.17779     -2.14030        -0.726670     -0.515762     -1.354957
Ni	      0.22988      2.32579     -2.22639        -1.249673      0.034503     -0.191801
Ni	      2.21959      2.23745     -4.39858         0.241830      0.163138      0.816615
O	      4.44711      4.50420     -2.05027        -0.040599     -0.118775      0.821302
O	      4.45190      2.25923     -4.54802        -0.309936      0.272527      0.139821
O	      4.60134      2.38414      0.02333        -0.968919      0.677595     -0.762080
O	      4.28710     -0.08804     -2.19538        -0.761372      1.487662      0.017827
O	      2.38016      4.48027      0.11545         0.430631     -0.020122     -1.037264
O	      2.21864      2.07073     -2.20676         0.772458      0.047355     -0.179675
O	      2.26487      6.89305     -2.20162         0.316801     -0.873442     -0.223471
O	      2.10313      4.48307     -4.52391         0.008743     -0.312006      0.441749
