# total energy = -204.05498753 eV
 
CRYSTAL
PRIMVEC
0.029880 6.578007 6.142575 
6.094315 0.034312 6.139621 
4.072620 4.393210 0.012118 
PRIMCOORD
36 1
Li	      6.06099      0.17067      6.18015         0.002774     -0.057238      0.034358
Li	      6.11574     10.79835      8.19541        -0.048799      0.024392      0.060648
Li	      4.19444      8.91283      8.15872         0.031284      0.053979     -0.099613
Li	      4.18222      6.60404     10.18181        -0.102444      0.009501      0.010623
Li	      6.03362      2.19316      4.05945         0.028823      0.026313     -0.049938
Li	     10.10011      6.53076      8.14615         0.082927      0.033853      0.018101
Li	      6.11655      4.32290      6.15948        -0.024710      0.041570      0.052971
Li	      6.11568      8.76736      6.28688        -0.049780     -0.063175     -0.014533
Li	      6.13264      6.78980      8.22768        -0.081835     -0.035165     -0.019388
Ti	      6.16926      6.37417      4.02953         0.356700     -0.255012     -0.051617
Mn	      4.09770      6.57975      6.16655         0.169787      0.245776      0.255165
Fe	      8.00365      2.26032      6.17070         0.356052     -0.084810      0.006473
Fe	      6.14929      4.59500     10.22888         0.149613     -0.054809      0.367520
Cu	      8.17296      6.55899      6.20476         0.102248     -0.039775      0.232446
Cu	      8.13330      6.67045     10.20218        -0.029709      0.115112     -0.169779
Cu	      4.02816      4.46625      8.16082         0.252088     -0.026965     -0.051015
Ni	      2.04332      4.28693      2.04105        -0.197051     -0.093718      0.120049
Ni	      4.05324      4.37169      4.11161        -0.002363     -0.141159     -0.248985
O	      8.14001      6.86532      8.15897        -0.034056     -0.260207      0.220061
O	      6.17770      8.82293      8.23313         0.037020     -0.035281     -0.022115
O	      2.03687      2.17857      2.09196         0.004998     -0.067226      0.114784
O	      3.92432      4.36581      2.12904         0.089730      0.091301     -0.200880
O	      3.98661      2.25326      4.22540        -0.151692     -0.177738     -0.283515
O	      6.09919      4.53838      4.08068         0.115717      0.473461     -0.013974
O	      6.09940      2.21086      6.10549        -0.120583      0.034649      0.112426
O	      8.13761      4.23224      6.29867        -0.021496      0.184458     -0.169408
O	      1.96294      4.22019      3.98443         0.652417     -0.193746     -0.122058
O	      4.08794      6.51753      4.18723        -0.179218      0.161744      0.053141
O	      4.06711      4.64626      6.09298        -0.060060      0.008698      0.350390
O	      6.07088      6.63192      6.02551        -0.276702     -0.025243     -0.139189
O	      6.17928      4.40961      8.33103        -0.230614     -0.024425     -0.610049
O	      2.16476      6.72836      6.07277        -0.026118     -0.118974     -0.079184
O	      4.07202      8.57083      6.05010        -0.070216     -0.258956      0.532354
O	      4.10820      6.44780      8.04217        -0.033241      0.073195     -0.190216
O	      6.22000      6.51623     10.29653         0.256780      0.439555     -0.021236
O	      8.32992      8.95523     10.26502        -0.948268     -0.003934      0.015182
