# total energy = -203.81490384 eV
 
CRYSTAL
PRIMVEC
0.033944 6.199690 6.405837 
6.166586 0.028669 6.411221 
4.101691 4.127569 0.028303 
PRIMCOORD
36 1
Li	      8.20664      2.11709      6.39997        -0.048434      0.082830     -0.049686
Li	      2.19305      6.18596      8.56600        -0.117844     -0.058869      0.055002
Li	      4.15052      8.17137      8.64845         0.066088      0.074736      0.059701
Li	      4.13518      6.20115     10.57398         0.017251     -0.026321     -0.025354
Li	      4.13499      4.14350      4.23696         0.037292     -0.009140     -0.101925
Li	      6.19915      4.13023      6.34745         0.077511     -0.092105     -0.135805
Li	      8.24833      6.22772     10.68617        -0.061815      0.066575     -0.003635
Li	      4.12142      4.26231      8.56689        -0.027437     -0.083871      0.054245
Li	      6.07654      6.24661      8.62479         0.103552      0.076098      0.130805
Ti	      4.07203      2.14824      6.38114         0.242766     -0.174125      0.210017
Mn	     10.24674      8.30529     10.70505        -0.207856      0.284791     -0.046006
Fe	      0.08482      6.20340      6.42808        -0.349832      0.088952     -0.012056
Fe	      6.27954      8.37566     10.58435         0.041249     -0.440346      0.265970
Cu	      4.12313      6.18211      2.19259         0.025565     -0.015580     -0.060099
Cu	      8.21803      4.15867      8.57024         0.095157      0.050042     -0.168341
Cu	      6.17378      6.14226      4.25632         0.123541     -0.346843      0.080354
Cu	      6.18735      8.28065      6.49792        -0.072633      0.011294      0.181306
Ni	      4.09046      6.19383      6.48506        -0.409046     -0.093367      0.838028
O	      6.21301      4.07597      8.75384        -0.148837      0.032149      0.063582
O	      4.15211      6.23361      8.35242         0.203884      0.010615     -0.313479
O	      6.18838      8.25104      8.78936        -0.057674     -0.133724     -0.883924
O	      1.97892      2.12851      2.27374         0.013937     -0.068622     -0.146374
O	      4.04112      4.20349      2.05241         0.060886      0.043217      0.150195
O	      4.12107      2.04398      4.41106        -0.146461      0.061025     -0.120071
O	      6.18464      4.03977      4.26980        -0.083726      1.014515      0.083332
O	      6.12066      2.04542      6.17179        -0.256713      0.135837      0.293258
O	      8.26871      4.24291      6.53971        -0.224922      0.128992     -0.199346
O	      1.94344      4.16474      4.15464         0.054521     -0.221278      0.287521
O	      4.12288      6.31170      4.51553         0.254393      0.023025     -0.092167
O	      4.07693      4.08271      6.42995         0.145224      0.113670     -0.062694
O	      6.20208      6.24633      6.32854        -0.026828     -0.077415     -0.004810
O	      8.31294      6.17294      8.37094        -0.097089      0.086570     -0.015857
O	      2.06080      6.12119      6.48645         0.639248      0.048248     -0.168997
O	      4.18901      8.30614      6.28394        -0.121234     -0.323685     -0.078550
O	      6.18445      6.14079     10.77671         0.014076     -0.187494     -0.129798
O	      8.32076      8.28367     10.71296         0.242241     -0.080395      0.065657
