# total energy = -205.35850846 eV
 
CRYSTAL
PRIMVEC
0.020446 6.168057 6.352218 
6.219646 0.031224 6.341601 
4.145510 4.103979 0.021570 
PRIMCOORD
36 1
Li	      0.04920      6.13484      6.33336         0.074875     -0.043971     -0.039067
Li	      6.26056      8.22187     10.56225        -0.021846     -0.005305     -0.145292
Li	      8.26868      4.17356      8.53082        -0.048946      0.014669      0.171866
Li	      4.10310      4.11250      4.30459        -0.030387     -0.013537      0.036110
Li	      0.07556      4.11094      4.28478         0.049405     -0.027446      0.073950
Li	      2.09212      4.10774      6.29166        -0.006592      0.005526     -0.032022
Li	      4.17440      6.16120      6.35354        -0.031434      0.014302     -0.019514
Li	      4.15539      4.10704      8.41294        -0.002379     -0.038602     -0.046201
Li	      6.25272      6.19349      8.45729         0.031456      0.026799      0.001987
Ti	      4.29918      6.09257     10.58273         0.419576     -0.148025     -0.316103
Mn	     10.33751      6.20720      8.50780         0.004451      0.226322      0.224734
Fe	      2.10890      6.11451      8.38603         0.025081     -0.007560      0.158033
Fe	      4.20861      8.27395      8.41595        -0.039167      0.067752      0.151549
Cu	      2.12447      8.20417      6.34621        -0.159434      0.080017     -0.062246
Cu	      6.20396      6.22923      4.29286        -0.272608      0.282710     -0.076989
Cu	      8.26270      6.23205      6.39171         0.047042     -0.150114      0.004345
Cu	      6.17666      4.14625      6.38201        -0.094751      0.223488     -0.166528
Cu	      2.06918      6.09838      4.26509        -0.023481     -0.006577      0.093272
O	      8.45237      6.15283      8.60475        -0.022987      0.006474     -0.258531
O	      2.10537      6.23745      6.36077         0.017170     -0.049164     -0.002629
O	      4.06186      8.22368      6.49831         0.028816      0.042455     -0.130658
O	      1.99174      2.03787      2.19227        -0.008083      0.099516     -0.118608
O	      4.22940      4.17317      2.12463        -0.109173      0.097916      0.007185
O	      4.07985      1.99830      4.10201         0.256310      0.027936      0.116584
O	      6.31652      4.21100      4.24056        -0.109735     -0.265189     -0.112304
O	      6.22262      2.13443      6.52486        -0.004456     -0.174141     -0.128273
O	      8.24552      4.17375      6.23404         0.036500      0.063438      0.211220
O	      2.06696      4.09775      4.26591        -0.007106     -0.178189      0.018305
O	      4.13326      6.18887      4.08434         0.166043     -0.057391      0.056276
O	      4.23127      4.05281      6.35080        -0.047522     -0.059172      0.026638
O	      6.26014      6.11924      6.31446         0.134919      0.024971      0.058898
O	      6.23648      4.00636      8.36534         0.006585     -0.154183      0.147974
O	      4.09827      6.23153      8.58079         0.093236     -0.064600      0.036609
O	      6.15314      8.29791      8.45929         0.137889     -0.143798     -0.069253
O	      6.17795      6.20170     10.57493        -0.478255     -0.014916      0.017376
O	      8.27863      8.31554     10.58002        -0.011014      0.297589      0.111309
