# total energy = -204.38826346 eV
 
CRYSTAL
PRIMVEC
0.023380 6.245102 6.226983 
6.189715 0.009068 6.241157 
4.116816 4.163429 0.015565 
PRIMCOORD
36 1
Li	      6.16378      0.01513      6.21367         0.023394     -0.038195     -0.014171
Li	      8.20448      2.16257      6.23342        -0.026282      0.005823     -0.046674
Li	      6.15800      2.13911      4.20797         0.052573     -0.017777      0.071033
Li	      6.18861      6.18785      4.21574        -0.037693      0.018754      0.019681
Li	      6.20534      4.10910      6.20213        -0.022911     -0.023964      0.018115
Li	      4.12173      8.33106      4.19429        -0.021717     -0.030743      0.037478
Li	      4.20009      6.23133      6.28323         0.010497      0.012612     -0.021316
Li	      4.15639      4.28789      8.28656         0.037720      0.010443      0.005554
Li	      6.07432      6.27335      8.32262         0.006438      0.011234     -0.013281
Ti	      8.14152      6.40343     10.45490        -0.125560      0.441586      0.162629
Mn	      6.20886      2.09580      8.28343         0.079760      0.114886      0.162762
Fe	      8.21846      4.13829      8.23277         0.003430     -0.038219      0.183309
Fe	      6.18178      8.27296      6.26181        -0.097300      0.130379     -0.185996
Ni	      2.13312      6.23997      8.30925        -0.051011     -0.050744     -0.111199
Ni	      4.17762      8.27228      8.32479        -0.047945      0.075410     -0.088055
Ni	      8.28420     10.38600     10.44140         0.030421     -0.079196      0.071394
Ni	      4.16465      4.15553      4.17820         0.016280      0.013377      0.027003
Ni	      4.13138      2.09718      6.21295        -0.007162     -0.009116      0.028676
O	      1.98807      2.10839      2.03290        -0.164768     -0.013683      0.010875
O	      4.09260      4.23821      2.09688        -0.006935      0.088895     -0.092366
O	      4.15474      2.13332      4.13089        -0.013365     -0.040487      0.012462
O	      6.14506      4.15877      4.13982         0.049062      0.011497      0.091541
O	      6.14832      2.09195      6.42147         0.032341     -0.033175     -0.070640
O	      8.24545      4.21194      6.28739        -0.022783     -0.012168     -0.170930
O	      2.14570      4.22632      4.14126        -0.031412      0.091181     -0.070460
O	      4.06375      6.16601      4.02282        -0.067266      0.036741     -0.115449
O	      3.97428      4.13929      6.20471         0.227342      0.037921      0.131667
O	      6.21808      6.42704      6.25318         0.037578     -0.348815      0.022508
O	      6.27274      4.01584      8.33837        -0.113728     -0.121648     -0.029358
O	      8.36263      6.18132      8.39773         0.050779      0.048150      0.061734
O	      2.11916      6.09092      6.13537        -0.028671      0.229238     -0.193659
O	      4.33717      8.29036      6.27333        -0.228585      0.016148     -0.098155
O	      4.11221      6.27528      8.44678         0.100365     -0.037736     -0.106380
O	      6.19298      8.39057      8.15612         0.139181     -0.065285      0.361605
O	      6.29218      6.25091     10.37068         0.276752      0.047167      0.009876
O	      8.27995      8.25792     10.47241        -0.058819     -0.480493     -0.061812
