# total energy = -235.79426389 eV
 
CRYSTAL
PRIMVEC
-0.020266 6.362434 6.276289 
6.322091 0.010528 6.246131 
4.216251 4.222626 0.005378 
PRIMCOORD
36 1
Li	      4.21865     10.38862      6.34321         0.007170     -0.023714      0.014462
Li	      2.27189      8.44807      6.28704         0.002174      0.004546     -0.017053
Li	      2.20812      6.30468      8.18314         0.047049     -0.034809     -0.008411
Li	      4.21312      8.41345      8.19138         0.009265     -0.028703      0.013975
Li	      8.41311     10.52883     10.41005        -0.019243     -0.035867      0.014031
Li	      8.44619      4.22210      8.28542         0.017261     -0.006575     -0.018775
Li	      6.19514      8.60555      6.37825        -0.017271      0.027073      0.067571
Li	      4.05679      6.47626      6.42455        -0.047662      0.026156      0.014733
Li	      4.13487      4.33762      8.33946        -0.049151      0.009878     -0.040508
Ti	      0.06630      2.02873      2.00470         0.194969     -0.260728     -0.115196
Cr	      4.18986      8.47974      4.25678        -0.027534      0.026193     -0.007128
Cr	      2.11462      2.14652      4.16824         0.081691     -0.059777     -0.004285
Cr	      4.18237      4.24058      4.20681         0.021906     -0.038350     -0.040558
Cr	      6.33371      4.24959      6.29992        -0.005671     -0.024726     -0.064336
Fe	      6.36783      8.49196     10.37477        -0.070102      0.072863      0.134153
Fe	      8.40357      6.29723      6.33005         0.020786      0.095899     -0.106766
Fe	      2.04112      6.42193      4.34588         0.072300     -0.107632     -0.215833
Fe	      6.10142      6.44126      8.33012         0.106417      0.001678     -0.022695
O	      1.96419      2.13658      2.18232        -0.176065      0.027063     -0.020978
O	      4.20620      4.39014      2.16703         0.008699      0.233084     -0.010424
O	      4.12128      2.25491      4.23014        -0.123283      0.037974      0.026200
O	      6.20717      4.33051      4.27910        -0.025514      0.108765      0.041794
O	      6.28818      2.19629      6.28754         0.012410      0.027844      0.188648
O	      8.33208      4.35768      6.22797        -0.017387     -0.073484      0.010918
O	      2.11043      4.19383      4.17997        -0.001451     -0.006736      0.014386
O	      4.23948      6.35381      4.09405         0.028687      0.006593     -0.029492
O	      4.30621      4.13181      6.18172         0.010762      0.011658      0.047482
O	      6.36366      6.26182      6.26594         0.004091     -0.011721     -0.071657
O	      6.32766      4.20305      8.33614         0.032543     -0.017522      0.015423
O	      8.54732      6.35850      8.33678         0.079130     -0.026600      0.109808
O	      2.09203      6.34295      6.18330        -0.032910      0.046616      0.180047
O	      4.21006      8.46342      6.16586         0.001203     -0.023551     -0.013637
O	      4.25532      6.36150      8.36616        -0.230473     -0.009399      0.042243
O	      6.31191      8.37572      8.40930        -0.021696      0.039229     -0.222495
O	      6.37895      6.26912     10.34324        -0.027628     -0.079271      0.092271
O	      8.50771      8.39377     10.44333         0.134528      0.066055      0.002081
