# total energy = -230.06809679 eV
 
CRYSTAL
PRIMVEC
0.014558 6.137936 6.364084 
6.182571 0.019163 6.358966 
4.141250 4.108337 -0.006925 
PRIMCOORD
36 1
Li	      4.15885     10.21183      6.35343         0.002034      0.001323     -0.026489
Li	      2.11647      6.13947      8.48879         0.024218      0.026536      0.008230
Li	      4.16685      6.09764     10.53023         0.049032     -0.007899     -0.050516
Li	      4.16316      6.12256      2.15668        -0.011369     -0.043112      0.021934
Li	      6.20909      4.11492      6.33783         0.029576      0.000422     -0.039111
Li	      4.13478      8.20546      4.29054        -0.005698      0.000568      0.056555
Li	      2.09361      6.15391      4.27013         0.012870      0.008161      0.023429
Li	      4.16857      6.18129      6.39532         0.051844      0.000018      0.025127
Li	      6.12357      6.18280      8.49762         0.024979      0.015661      0.074267
Ti	      8.14336      4.15922      8.42876        -0.136149      0.038410     -0.069158
Cr	      6.25200      8.09839     10.61159         0.067901     -0.135093      0.012600
Cr	      6.17307      6.12557      4.21695        -0.026746     -0.008914     -0.038217
Cr	      4.12300      4.15825      4.21855        -0.031528      0.042301      0.022083
Cr	      4.13772      2.04704      6.35776         0.046199     -0.101418     -0.036361
Cr	      4.18491      4.17429      8.50543        -0.004128     -0.035946      0.042948
Co	      2.15137      8.00859      6.32361        -0.000218     -0.011334     -0.043047
Cu	      6.13253      8.26898      6.36317        -0.030360      0.181696      0.014808
Ni	      4.18187      8.13623      8.42948         0.056512     -0.018638      0.089895
O	      2.07880      2.11238      2.10738        -0.116949      0.067557      0.069958
O	      4.00749      4.06016      2.23765        -0.042080      0.140725     -0.012901
O	      4.14446      2.09201      4.30099        -0.029650      0.016073      0.057925
O	      6.10604      4.10973      4.26445         0.022192      0.001500     -0.001309
O	      6.18186      2.10248      6.17927        -0.025977      0.015653      0.035278
O	      8.25792      4.10397      6.48879         0.020549      0.056951      0.109903
O	      2.10228      4.05135      4.07386        -0.023150     -0.023552     -0.150747
O	      4.23072      6.09081      4.24066        -0.052966      0.041710     -0.031927
O	      4.03027      4.05769      6.39950         0.065977     -0.009582     -0.053667
O	      6.29468      6.25459      6.20101        -0.072187     -0.095980      0.006220
O	      6.23070      4.13051      8.48376         0.119731     -0.011425     -0.058878
O	      8.28370      6.15269      8.35315        -0.040922     -0.050708     -0.021134
O	      2.04768      6.20621      6.37645         0.032173     -0.016542      0.029647
O	      4.14454      8.21598      6.40372        -0.050184     -0.004421     -0.147866
O	      4.16861      6.10443      8.47613         0.010336     -0.073759      0.036517
O	      6.28927      8.25150      8.69930         0.066516     -0.017079      0.085778
O	      6.21072      6.32231     10.61733        -0.000244     -0.000430     -0.009557
O	      8.21548      8.20228     10.58186        -0.002134      0.010562     -0.032216
