# total energy = -228.33738121 eV
 
CRYSTAL
PRIMVEC
-0.010814 6.248982 6.207103 
6.226445 -0.019462 6.216046 
4.144930 4.165869 -0.007095 
PRIMCOORD
36 1
Li	     10.30411      4.20905      6.25103         0.012512     -0.011069     -0.000137
Li	      8.32672      8.34820     12.41503         0.053496      0.026274     -0.014101
Li	      2.12079      6.18858      8.20250         0.042356     -0.018602      0.029653
Li	      4.18179      8.30915      8.18771         0.032773     -0.007417      0.042405
Li	      6.21739      2.12705      8.08006         0.025363     -0.009993     -0.007904
Li	      6.29192      4.05794      6.33871        -0.019714     -0.021085     -0.025384
Li	      6.18655      4.20983     10.29773        -0.014434     -0.024884      0.030865
Li	      4.18602      4.24482      8.28665        -0.074535      0.022005     -0.014261
Li	      6.19316      6.13821      8.29900        -0.034427      0.036658     -0.008739
Ti	      6.11547      6.23532      4.04961         0.055026     -0.305017     -0.219415
Cr	      4.22194      6.15189     10.25737        -0.051183      0.028386     -0.010221
Cr	      4.13653      4.14134      4.12133         0.164695     -0.066245      0.018338
Cr	      8.31912      6.18908      6.25549         0.227635     -0.013664     -0.028708
Cr	      8.25622      6.27709     10.36633        -0.098758      0.167882     -0.081613
Cr	      6.16711      8.34247      6.36652         0.021812     -0.128781      0.176217
Co	      4.15012      6.24110      6.32065         0.005540      0.056253      0.052139
Cu	      6.26841      8.25663     10.27002         0.013913     -0.035832      0.136041
Cu	      8.26610      4.14449      8.24927         0.080919     -0.000785     -0.072981
O	      6.41675      4.11994      8.28526        -0.148474     -0.023853      0.000996
O	      2.00329      2.24919      2.20949         0.013432     -0.092696      0.211875
O	      3.95693      4.16793      2.17431         0.053207      0.013973     -0.012190
O	      3.96958      2.09667      4.22511        -0.288795      0.045780      0.012963
O	      6.19351      4.33936      4.05259        -0.060022      0.368961      0.028073
O	      6.11491      2.08808      6.03594        -0.204400     -0.021395      0.094042
O	      8.28823      4.23587      5.99035        -0.002919      0.017682     -0.080902
O	      2.14349      4.19142      4.34926        -0.052968      0.025931      0.133650
O	      4.12770      6.16155      4.31654         0.107631     -0.029047     -0.037639
O	      4.10344      4.14711      6.19187        -0.041678      0.009838      0.009265
O	      6.17776      6.31548      6.15137         0.000317      0.097267     -0.027479
O	      8.31569      6.07035      8.28777        -0.018384      0.094475      0.021400
O	      2.18489      6.20237      6.16836         0.006909      0.025196      0.004610
O	      4.20952      8.13731      6.24316        -0.011317     -0.093362     -0.004429
O	      4.14813      6.25206      8.25576        -0.011335      0.008690     -0.055254
O	      6.19832      8.38391      8.33434         0.037469      0.029672     -0.301817
O	      6.24365      6.20188     10.35899         0.125249     -0.048716      0.019628
O	      8.37004      8.30094     10.30937         0.053087     -0.122481     -0.018984
