# total energy = -91.97457484 eV
 
CRYSTAL
PRIMVEC
2.193860 4.346675 2.152781 
4.286813 -2.135948 -2.126209 
0.010224 4.337353 -4.297184 
PRIMCOORD
16 1
Li	      2.25941      2.26888      0.00994        -0.004169      0.044856     -0.076724
Li	      4.43474      2.33111     -2.23261        -0.162289      0.474149     -0.094394
Li	      2.26333      4.52282     -2.22439         0.087828     -0.028129     -0.054611
Li	      4.55125      4.49689     -4.43069         0.085646     -0.303807      0.234849
Mn	      0.00422      0.16528     -0.15654         2.583104     -1.186722      1.713367
Mn	      2.31789      0.20051     -2.15063        -0.795100     -0.556227     -1.520948
Ni	      0.26342      2.35899     -2.24783        -1.401257      0.061754     -0.220977
Ni	      2.24108      2.25912     -4.44118         0.260985      0.147683      0.912482
O	      4.49018      4.54783     -2.07013        -0.045767     -0.107748      0.875663
O	      4.49502      2.28111     -4.59207        -0.325914      0.289922      0.177947
O	      4.64591      2.40723      0.02356        -1.140141      0.729672     -0.848239
O	      4.32862     -0.08889     -2.21664        -0.823378      1.725174      0.024566
O	      2.40321      4.52367      0.11657         0.415648     -0.008303     -1.199325
O	      2.24013      2.09079     -2.22814         0.857862      0.070078     -0.195486
O	      2.28681      6.95981     -2.22295         0.361422     -1.012509     -0.261419
O	      2.12350      4.52649     -4.56773         0.045521     -0.339844      0.533248
