# total energy = -225.83881210 eV
 
CRYSTAL
PRIMVEC
-0.037267 6.148445 6.126773 
6.592047 -0.038121 6.128562 
4.357445 4.063242 0.011651 
PRIMCOORD
36 1
Li	      2.20649      2.05482      0.07309        -0.000359      0.006968     -0.010134
Li	      4.25501      8.11387      8.10638        -0.046349      0.024956     -0.048508
Li	      6.62047      2.04600      8.08146         0.029064      0.015956     -0.033009
Li	      6.57913      6.03600      4.22420         0.006364     -0.030818     -0.027790
Li	      8.51658      6.11852      6.21369        -0.023013     -0.060413     -0.031670
Li	      6.45949      4.14668      6.17286        -0.026748     -0.068870     -0.004017
Li	      6.56079      8.03303      6.21715        -0.033197      0.050374     -0.026163
Li	      4.57375      6.10897      6.23546         0.023079      0.042431     -0.045980
Li	      6.63678      6.08858      8.03805         0.077914      0.005153      0.020252
Ti	      4.38681      8.03802      4.08502         0.077761     -0.072725      0.229616
Cr	      6.58490      6.13484     12.24136         0.063291     -0.024231     -0.020907
Cr	      2.16340      0.04061      2.02871        -0.144018      0.048836     -0.060260
Cr	      6.28693      2.02485      4.07721        -0.072149     -0.038268      0.275088
Cr	      2.21588      4.04939      1.98918        -0.047962     -0.116986     -0.104492
Cr	      8.76977      6.13216     10.22626        -0.087312     -0.087487      0.230160
Cu	      8.63420      4.02241      4.13700        -0.030736      0.086396      0.196306
Cu	      4.37551      4.06788      8.05071        -0.102093     -0.070611     -0.066581
Ni	      4.29981      4.10100      4.17516        -0.102623     -0.034251     -0.119691
O	      4.33013      4.07248      6.15577         0.005369      0.021772      0.146103
O	      6.54076      6.09523      6.14239        -0.000610     -0.016502      0.003360
O	      2.21013      2.03958      2.08578        -0.007697      0.050281     -0.003831
O	      4.34401      4.08574      2.00941         0.001702      0.033817      0.092996
O	      4.47183      1.95318      4.12802         0.015713      0.014963     -0.074635
O	      6.33175      3.96752      4.03977         0.013863      0.018499      0.024819
O	      6.70932      1.96165      5.88246        -0.036936      0.123100     -0.066335
O	      9.00035      4.04002      6.12013        -0.171940     -0.004882     -0.031177
O	      2.12118      4.15805      4.02054        -0.010632     -0.020465     -0.026724
O	      4.21041      6.17531      4.14813         0.040664      0.224979     -0.037739
O	      6.82625      4.04641      8.26187        -0.055475     -0.000280      0.070783
O	      8.82476      6.07023      8.25659         0.058556     -0.004415     -0.024532
O	      1.97579      6.15557      6.14104         0.223440      0.014852     -0.045030
O	      4.36160      8.24940      5.98353         0.013792     -0.144475     -0.177985
O	      4.09769      6.06454      8.27420         0.006505      0.027720     -0.030258
O	      6.44607      8.23279      8.35629         0.188567      0.003710     -0.107382
O	      6.73686      6.13224     10.22280         0.103095      0.032074     -0.081377
O	      8.97148      8.14976     10.08315         0.051112     -0.051159      0.016723
