# total energy = -226.83656145 eV
 
CRYSTAL
PRIMVEC
0.006532 6.294468 6.243663 
6.268451 0.028932 6.220649 
4.192612 4.194460 0.006066 
PRIMCOORD
36 1
Li	      4.16867      4.20045      0.03781        -0.034579     -0.001280     -0.007665
Li	      6.26411      2.19293      8.19913        -0.042210      0.026876      0.045048
Li	      6.22314      6.34396      4.27615         0.014335      0.036807      0.072020
Li	      4.25319      2.12803      6.25495        -0.052802     -0.008949     -0.012244
Li	      6.29307      4.14545      6.28282        -0.023054      0.040644     -0.027544
Li	      4.25465      8.34786      4.26988         0.035536     -0.003169      0.018974
Li	      6.26942      8.38386      6.24076         0.084583     -0.012805     -0.004988
Li	      4.18979      6.35319      6.21731         0.010641     -0.059333     -0.008263
Li	      4.22700      4.19390      8.15456         0.009198      0.072228     -0.062294
Ti	      6.35585      6.20855      8.13235        -0.003774     -0.116874     -0.323640
Cr	      4.16672      8.38374      8.25633         0.146341     -0.151306      0.206444
Cr	      8.38518      4.21393      4.20198         0.008436     -0.000755     -0.103309
Cr	      6.26954      2.14209      4.18805         0.030769     -0.031328     -0.197294
Cr	      4.14743      4.30649      4.25593         0.010699     -0.183622      0.093092
Cr	      2.09015      6.30455      4.23076         0.107413     -0.041780     -0.083674
Cu	      8.35064      2.13777      6.24560         0.024639      0.077477     -0.097661
Cu	      2.07845      6.27971      8.20758        -0.063404     -0.089411      0.076803
Cu	      8.33172      4.20926      8.29808        -0.005068     -0.185045      0.046094
O	      2.10342      6.37013      6.23026        -0.076429     -0.229090      0.003924
O	      4.11885      8.39287      6.32062        -0.143403      0.082771     -0.185699
O	      2.14171      1.97745      2.00673        -0.107321      0.262351      0.373257
O	      3.98882      4.06021      2.25698         0.101228      0.133426     -0.305894
O	      4.24148      2.09663      4.08014         0.034811     -0.050164      0.062884
O	      6.29152      4.16099      4.01040        -0.007470      0.015795      0.141455
O	      6.32237      2.12502      6.14660         0.130959     -0.052722      0.138952
O	      8.35341      4.15328      6.13204         0.052620      0.334269     -0.046196
O	      2.17785      4.32248      4.24514        -0.035951      0.035916      0.104832
O	      4.09344      6.15211      4.13432         0.008263      0.260050     -0.000176
O	      4.25150      4.15640      6.03551         0.006920      0.009726      0.304532
O	      6.30276      6.31581      6.33413         0.031163      0.002191      0.325940
O	      6.36623      4.32650      8.34639        -0.114035      0.030727     -0.043565
O	      8.27789      6.40727      8.43415        -0.086324      0.008796     -0.085008
O	      4.37201      6.34998      8.40453         0.034777      0.001353     -0.011061
O	      6.21088      8.41728      8.35586        -0.085011     -0.212360      0.027579
O	      6.27103      6.41916     10.35003         0.036428      0.021491     -0.015874
O	      8.30259      8.44498     10.45231        -0.038925     -0.022903     -0.419781
