# total energy = -233.71321053 eV
 
CRYSTAL
PRIMVEC
0.049334 6.186490 6.186649 
6.359433 0.030022 6.205916 
4.243146 4.140647 0.016498 
PRIMCOORD
36 1
Li	      0.09364      0.05811      0.06126         0.023273      0.037652     -0.005073
Li	      2.05450      1.97427      0.09923        -0.061304     -0.041420     -0.051879
Li	      2.05019      0.06735      1.99045         0.021899      0.001596     -0.026975
Li	      4.27425      6.13962      2.06176        -0.011956     -0.028878     -0.006458
Li	      6.29735      6.19110      4.15108        -0.016807     -0.000494     -0.052166
Li	      4.32651      4.17376      4.08979         0.066956     -0.034111     -0.057250
Li	      8.48806      6.26789      6.27578         0.011748     -0.010126      0.019612
Li	      4.29837      6.20291      6.17588         0.026969     -0.025055      0.014984
Li	      6.41120      6.22945      8.20036        -0.018309      0.009500      0.030148
Ti	      4.23897      0.16141      4.14883        -0.062955      0.411498     -0.066824
Cr	      2.18919      4.11287      2.01525        -0.007772     -0.008316      0.034254
Cr	      6.34554      4.18461      6.20274        -0.083157      0.059082      0.050551
Cr	      4.28086      8.24637      4.18404         0.120520     -0.007115      0.063894
Cr	      6.41098      8.20326      6.22730         0.047223      0.014211     -0.043268
Cr	      8.49891      8.26845      8.26464        -0.053743      0.049727     -0.031505
Fe	      2.25978      6.19692      4.20783        -0.086568     -0.000731     -0.031376
Co	      4.25295      8.27036      8.19656        -0.091075      0.054971     -0.059614
Cu	      6.32310      2.10925      4.20025        -0.151788     -0.088939     -0.064748
O	      2.30750      2.15196      2.01999        -0.094068     -0.027591     -0.004181
O	      4.14324      3.99398      2.06087         0.016623      0.021454     -0.044366
O	      4.17948      2.02036      3.95069        -0.114349     -0.319983      0.114460
O	      6.49718      4.11226      4.21510         0.058161      0.115165     -0.020147
O	      6.35449      2.20115      6.12893         0.008439     -0.031365      0.217346
O	      8.37556      4.21147      6.18761        -0.001268     -0.038757     -0.072571
O	      2.05176      4.17178      4.10970         0.034125     -0.048657     -0.004253
O	      4.21264      6.26566      4.11353         0.092408     -0.004525     -0.008892
O	      4.26447      4.13507      6.28808         0.023526      0.000061      0.032346
O	      6.40018      6.20995      6.19615         0.010147     -0.053335      0.011824
O	      6.36640      4.14449      8.28784         0.010654      0.025772     -0.026988
O	      8.48824      6.23082      8.39836        -0.006936      0.002625     -0.071143
O	      2.15227      6.09094      6.11666         0.030301      0.015604      0.101958
O	      4.42177      8.22237      6.22770        -0.017688      0.020045     -0.045875
O	      4.25522      6.19284      8.39830         0.054862     -0.001339      0.145291
O	      6.42097      8.27802      8.26537         0.062711     -0.004998     -0.085240
O	      6.28474      6.18029     10.38857        -0.001015     -0.121044      0.006294
O	      8.65169      8.30539     10.29032         0.160210      0.057815      0.037830
