# total energy = -230.88064552 eV
 
CRYSTAL
PRIMVEC
0.025257 6.322342 6.196029 
6.283517 0.020117 6.200978 
4.189996 4.218895 0.012746 
PRIMCOORD
36 1
Li	      6.33020      6.41679     12.30599         0.007634      0.077405      0.000767
Li	      8.34731      8.40354     12.29890        -0.084870     -0.023291      0.084632
Li	      6.31252      2.08840      4.36330        -0.023212      0.016200      0.001182
Li	      4.23962      4.25027      4.20581        -0.061383      0.015177     -0.003224
Li	      4.29252      2.18820      6.16537         0.052725     -0.000230      0.012134
Li	      6.25015      4.09309      6.19823         0.043924     -0.046318      0.014173
Li	     10.42217      8.44682     10.39375         0.074064      0.036004     -0.034865
Li	      8.41242      6.48715     10.36127         0.038966     -0.008428      0.037611
Li	      4.16747      6.34398      6.08372        -0.057665     -0.009838      0.012648
Ti	      2.10873      4.30084      6.05015         0.016363      0.184851     -0.417140
Cr	      6.29395     10.47959      8.28388        -0.018720      0.063376     -0.036527
Cr	      4.12659      2.13030      2.03263        -0.120765     -0.006416     -0.020186
Cr	      8.42089      4.19729      4.29765         0.116144     -0.009487      0.220480
Cr	      6.27613      2.15230      8.21858        -0.031443      0.026537     -0.100448
Cr	      6.35168      6.32087      8.28423        -0.008400     -0.049239      0.020764
Fe	      6.20090      6.25871      4.26481         0.145182      0.092484     -0.076990
Cu	      8.43390      4.28426      8.17972         0.119041      0.085518      0.087035
Cu	      4.25160      4.23705      8.26316         0.100932     -0.023308     -0.009204
O	      8.37846      8.63511     10.22811         0.025930     -0.013406     -0.032771
O	      2.07370      1.94086      2.09212        -0.008510     -0.070479      0.018075
O	      4.21625      4.20299      2.10991         0.115163     -0.040094     -0.003664
O	      4.06863      1.95023      4.05104         0.025143     -0.078283     -0.031093
O	      6.34928      4.24084      4.10823        -0.001711     -0.058202      0.003161
O	      6.28268      2.12859      6.30446         0.013654     -0.005751      0.093024
O	      8.45288      4.21922      6.11358        -0.110214     -0.034908     -0.481625
O	      2.15784      4.11759      4.16901        -0.002598     -0.005988      0.699478
O	      4.28601      6.32563      4.06106        -0.154091      0.009302     -0.009251
O	      4.04765      4.24418      6.32625        -0.083094     -0.035239     -0.051453
O	      6.29109      6.43167      6.23787         0.029857      0.081210      0.141920
O	      6.49555      4.26520      8.22677        -0.147160      0.067951      0.022567
O	      8.39098      6.45505      8.35133        -0.059878     -0.083116     -0.093378
O	      2.12916      6.22264      6.25638        -0.027956     -0.249212      0.041420
O	      4.32621      8.43280      6.26785         0.098679     -0.032841      0.007102
O	      4.21113      6.38596      8.36027         0.003802      0.155411     -0.058016
O	      6.13111      8.42415      8.21038        -0.006814     -0.047562     -0.000736
O	      6.20606      6.35309     10.24634        -0.018716      0.020209     -0.057602
