# total energy = -230.77782979 eV
 
CRYSTAL
PRIMVEC
0.029449 6.156382 6.335499 
6.214482 0.021281 6.343937 
4.150215 4.117200 0.006642 
PRIMCOORD
36 1
Li	     10.30543      4.14005      6.38609         0.027718     -0.048869     -0.022648
Li	      4.22824      8.25435      8.43053         0.050493     -0.150762     -0.042477
Li	      4.20112      6.14871     10.57119        -0.012787     -0.013213     -0.067202
Li	      8.31964      4.21270      8.41336         0.029125     -0.083158      0.000125
Li	      4.13334      4.14297      4.20405         0.040002     -0.042551      0.042266
Li	      6.24512      4.10554      6.44110        -0.011233      0.093369     -0.003845
Li	      8.28009      6.14969     10.46878        -0.082384     -0.046289      0.040261
Li	      4.19976      4.09292      8.41343        -0.112806      0.225137     -0.050646
Li	      6.21940      6.13559      8.50980        -0.212087      0.045781      0.005474
Ti	      2.17172      2.04123      4.18243         0.483543     -0.283941      0.301142
Cr	      8.27875      2.17124      6.36869         0.111362     -0.113339     -0.175165
Cr	      6.23357     10.25193      8.45930         0.937184      0.167546      0.060686
Cr	      8.32418      6.16182      6.42138        -0.189558      0.031957     -0.950991
Cr	      6.21188      4.16650     10.51435        -0.123936      0.324732      0.804599
Cr	      4.17924      6.10717      6.38875        -0.052675      0.023514      0.279762
Fe	      6.28622      8.09628     10.51294        -0.112110      0.282348     -0.265528
Ni	     10.32964      6.19658      8.48548        -0.583733     -0.022769     -0.055736
Ni	      6.22780      8.24730      6.36936        -0.095273      0.088110      0.162023
O	      2.06598      2.04285      2.15949        -0.278568      0.143891     -0.026644
O	      4.27749      4.21154      2.10944        -1.045722      0.451231      0.047953
O	      4.10092      2.07247      4.31774        -0.254020      0.034852      0.013716
O	      6.22401      4.19451      4.12669         0.007353      0.220699      0.201518
O	      6.21122      2.09710      6.24025         0.071482      0.052067      0.509065
O	      8.28355      4.14248      6.37302        -0.001207      0.017637      0.116670
O	      2.01062      4.00751      4.26322         0.022718     -0.059582     -0.231072
O	      4.27094      6.22411      4.30595        -0.101091     -0.050181     -0.569129
O	      4.09185      4.10070      6.32442         0.208550     -0.168257      0.035437
O	      6.25210      6.16857      6.22974         0.013686     -0.127315     -0.055344
O	      6.19504      4.04552      8.58790         0.217369     -0.429558     -0.588908
O	      8.37558      6.17225      8.34719         0.451963      0.008252      0.703520
O	      2.17927      6.21835      6.43338        -0.107751      0.137059     -0.198333
O	      4.11999      8.15812      6.25949        -0.090493      0.082874     -0.025256
O	      4.05637      6.18648      8.32604         0.576455     -0.104757      0.032802
O	      6.20034      8.28918      8.53924         0.045603     -0.283574     -0.020361
O	      6.25566      6.18929     10.51898         0.013564     -0.322464      0.011252
O	      8.29656      8.24271     10.71686         0.159265     -0.080474     -0.018987
