# total energy = -227.32631684 eV
 
CRYSTAL
PRIMVEC
0.012851 6.232048 6.279914 
6.282802 0.034158 6.258431 
4.207314 4.159260 0.004111 
PRIMCOORD
36 1
Li	      6.32290      8.29928     10.39011         0.032570     -0.005971     -0.002367
Li	      2.07771      4.20146      2.23894        -0.012595      0.026889      0.046620
Li	      4.06085      4.16584      4.29315        -0.009971     -0.003634      0.061693
Li	      4.09758      2.21463      6.27550         0.009694      0.031055      0.038955
Li	      0.14939      4.14065      4.17386        -0.013098      0.005863      0.003672
Li	      2.05762      6.16582      4.18122        -0.024321     -0.028709     -0.007183
Li	      2.19961      4.09679      6.20561         0.040110     -0.013435      0.031463
Li	      8.34158      8.25795      8.30366        -0.001561     -0.009148     -0.030557
Li	      6.42608      6.33486      8.29868         0.033610      0.057789     -0.016924
Ti	      4.34934      6.20637     10.44587         0.232559     -0.201742     -0.056791
Cr	      8.39261      8.33692     12.51625        -0.057646      0.055973     -0.108738
Cr	      6.31124     10.36315      8.38805         0.034274     -0.071333      0.005214
Cr	      4.21484      2.12199      2.10446         0.020949      0.037855      0.004616
Cr	     10.36852      6.32266      8.41695        -0.227080      0.147865     -0.042234
Cr	      6.22513      4.19919      6.26257         0.059304     -0.051894      0.008721
Ni	      6.31193      6.27224     12.50493        -0.028506      0.013273     -0.053678
Ni	      2.09507      2.14500      4.22243         0.042531     -0.088986      0.003906
Ni	      4.22821      6.20988      6.20602        -0.055016      0.038500      0.075749
O	      2.08123      2.01852      2.02564        -0.013707      0.005046     -0.042498
O	      4.29649      4.21199      2.04318        -0.012578      0.008066      0.091079
O	      4.09905      2.01957      4.09992         0.101055     -0.017949      0.000868
O	      6.38962      4.31712      4.17045        -0.036441     -0.115935     -0.043009
O	      6.33933      2.13033      6.34662         0.001591      0.040358      0.036187
O	      8.34975      4.14142      6.15392        -0.038345     -0.032561     -0.095937
O	      2.10320      4.01008      4.19060         0.021062      0.162877      0.027155
O	      4.32507      6.26944      4.10278        -0.117309     -0.010695     -0.153559
O	      4.28792      4.20265      6.28477        -0.046550     -0.110752     -0.018485
O	      6.26092      6.17055      6.27521         0.140712      0.044762      0.100693
O	      6.32744      3.99688      8.24271         0.023897     -0.154330      0.112273
O	      8.57496      6.21728      8.42072         0.226249      0.001881      0.008210
O	      2.11625      6.31242      6.35470        -0.001136     -0.004063     -0.011158
O	      4.10208      8.32887      6.38633        -0.043553      0.004436     -0.038540
O	      4.13076      6.32361      8.44206        -0.029441      0.034462      0.099730
O	      6.19042      8.40803      8.38772        -0.026797      0.053093      0.018365
O	      6.20517      6.27858     10.45222        -0.256072     -0.019370     -0.077057
O	      8.35830      8.47158     10.51009         0.031553      0.170464      0.023547
