# total energy = -228.33755395 eV
 
CRYSTAL
PRIMVEC
0.026852 6.083970 6.266313 
6.366816 0.007847 6.283938 
4.250866 4.074360 -0.000981 
PRIMCOORD
36 1
Li	      4.28646      4.05399      0.12212        -0.005930     -0.004993      0.002990
Li	      2.15232      6.10851      8.32074        -0.021685      0.007471      0.062439
Li	      4.27083      8.12784      8.32528         0.074107      0.032694      0.086317
Li	      2.23418      4.04448      2.01334         0.003985     -0.020382      0.014534
Li	      4.25703      4.08707      4.14723        -0.018600      0.001819     -0.013143
Li	      6.34194      4.12425      6.27961        -0.054374      0.035646     -0.006710
Li	      2.17287      6.08321      4.20318         0.033179     -0.001454     -0.065469
Li	      4.19587      6.03840      6.48110         0.001140     -0.048253      0.072946
Li	      4.24570      4.12341      8.25653        -0.019355      0.004845      0.032913
Ti	      0.07257      4.03709      4.18763         0.235450     -0.140846     -0.258834
Mn	     10.58997      6.04457      8.33705        -0.061590      0.001943      0.049249
Cr	      4.26704      6.10355     10.42128         0.037891      0.021173     -0.170658
Cr	      6.41600      8.15654     10.41328        -0.100520      0.037888     -0.124380
Cr	      8.49988      6.12710      6.31090        -0.044066      0.014099     -0.106019
Cr	      2.16396      4.11982      6.35468         0.031779      0.007395     -0.031186
Co	      2.12741      1.99687      0.04765        -0.117634      0.171420     -0.177333
Cu	      6.36235      6.04301      4.18366        -0.021107     -0.036245     -0.092813
Ni	      6.34948      6.07357      8.33793         0.038627     -0.002945     -0.021183
O	      1.94386      2.04999      1.98557         0.011458     -0.044205     -0.584455
O	      4.23190      4.20780      2.10610        -0.021574     -0.012358     -0.051829
O	      4.37949      2.01042      4.25995         0.146847      0.031733      0.051402
O	      6.49146      4.08398      4.18714         0.003979     -0.192467      0.033412
O	      6.27293      2.06226      6.30216         1.001098     -0.019845      0.032469
O	      8.51216      4.04145      6.17358        -0.094927     -0.643627      0.234451
O	      2.00266      3.95479      4.29072        -0.241468      0.202824      0.031497
O	      4.22933      6.15993      3.98048        -0.183980      0.146670     -0.034551
O	      4.13478      4.02640      6.25098        -0.008570     -0.038833      0.019454
O	      6.49117      6.16952      6.30563         0.097119     -0.013292      0.026287
O	      6.36410      4.00921      8.51345        -0.026821     -0.102162      0.160632
O	      8.62346      6.08829      8.29482         0.046241      0.025826     -0.010304
O	      2.15691      6.11779      6.21376         0.105460      0.731669      0.146272
O	      4.34957      8.09936      6.14181        -0.950971     -0.011140     -0.026579
O	      4.33084      6.10917      8.46511        -0.125850     -0.012085     -0.028696
O	      6.39987      8.10800      8.40330         0.069300      0.110948      0.030700
O	      6.35374      6.07283     10.39789        -0.026617     -0.140735      0.223663
O	      8.49529      8.15780     10.57017         0.207978     -0.100195      0.492515
