# total energy = -228.75357131 eV
 
CRYSTAL
PRIMVEC
0.016820 6.205119 6.351803 
6.267257 0.006730 6.361727 
4.170163 4.135420 0.012306 
PRIMCOORD
36 1
Li	      6.20603      0.08502      6.34937         0.002960      0.023360     -0.028559
Li	      4.17074      2.14567      2.24946        -0.012643      0.055537      0.036430
Li	      6.23485      2.01649      4.31398        -0.039442     -0.020177     -0.016498
Li	     10.39748      6.19618      8.51320         0.005616      0.001345     -0.103901
Li	      8.45030      4.20317      8.41743         0.039372      0.003877      0.022016
Li	      6.27528      6.16857      4.26844         0.068527      0.022045     -0.030725
Li	      6.30722      4.15427      6.39269         0.024863     -0.026481     -0.001033
Li	      8.37910      6.21239     10.52816        -0.013604     -0.002844      0.009712
Li	      6.29790      6.14936      8.52824         0.003279     -0.022976      0.023130
Ti	      6.15431      8.15431      6.35295         0.069746     -0.060062      0.079040
Mn	      8.39138      8.20244      8.48714        -0.019338     -0.173003      0.123180
Cr	      8.25595      2.12619      6.40868        -0.372201     -0.119027     -0.089039
Cr	      2.08355      0.03760      2.12874        -0.056621     -0.022542      0.011079
Cr	      4.21080      4.16910      4.21942         0.020533     -0.233880     -0.093344
Cr	      6.29531      4.14557     10.54759        -0.042136      0.075504     -0.052097
Co	      4.17018      0.05025      4.23953         0.306326     -0.081373      0.172536
Cu	      8.38979      6.15360      6.36078         0.005308     -0.022344      0.189105
Cu	      4.13314      6.19868      6.34168         0.060255     -0.022961      0.070661
O	      6.47785      2.08704      6.33606         0.254351      0.001134     -0.031030
O	      2.20432      2.02747      1.89336         0.007710      0.053467      0.037009
O	      4.27399      4.14738      2.25565        -0.006746      0.033646     -0.042922
O	      4.19441      2.12696      4.36867        -0.088318      0.256157     -0.248859
O	      6.26471      4.15270      4.13870        -0.029202      0.109759      0.017127
O	      8.33377      4.11488      6.24987        -0.055634     -0.276162      0.030018
O	      2.10631      4.17624      4.36671        -0.032480      0.028086      0.107724
O	      4.19663      6.22463      4.27264         0.043998     -0.167726      0.022290
O	      4.07005      4.06291      6.26658        -0.118584      0.215498     -0.149406
O	      6.07292      6.30159      6.39879         0.260751      0.074972     -0.029083
O	      6.13594      4.10603      8.58526         0.071886      0.013399     -0.004417
O	      8.34665      6.27680      8.33500        -0.035713      0.158291      0.146874
O	      2.16935      6.22822      6.44556        -0.251811      0.059169      0.062328
O	      4.24065      8.36447      6.28019         0.067528      0.097698     -0.061343
O	      4.13550      6.07824      8.60528        -0.073125     -0.035189     -0.176274
O	      6.37343      8.33318      8.32600        -0.060527     -0.008949     -0.073366
O	      6.13730      6.11338     10.56990        -0.013687      0.056612     -0.052760
O	      8.47565      8.23241     10.75928         0.008805     -0.043861      0.124395
