# total energy = -227.83540788 eV
 
CRYSTAL
PRIMVEC
-0.008286 6.277432 6.104380 
6.279152 -0.014468 6.110586 
4.169183 4.172125 0.007389 
PRIMCOORD
36 1
Li	      2.13735      2.08410      0.11768         0.027121     -0.018729      0.121722
Li	      2.12830      6.29439      8.04798         0.011435      0.114517     -0.006173
Li	      4.13417      8.34790      8.01652        -0.071366     -0.005117     -0.030450
Li	      6.34078      2.11351      8.09336         0.101931      0.048169     -0.036833
Li	      8.32671      4.10718      8.09844        -0.016855     -0.080264     -0.091068
Li	      6.28370      4.11491      6.16754         0.036536     -0.046328      0.063087
Li	      6.20945      8.42781      6.17115        -0.043561      0.029963      0.093869
Li	      4.07937      6.28308      6.16892        -0.085245      0.016469      0.074432
Li	      4.17288      4.19020      8.09572        -0.000209     -0.007005     -0.041056
Ti	      6.17677      6.19165      8.04443        -0.220977     -0.199195     -0.290991
Mn	      6.31424      8.39185     10.15794        -0.144294      0.070696     -0.025542
Cr	      2.05380      2.10290      4.00541         0.036738      0.027940      0.040066
Cr	      4.16252      4.18976      4.03709         0.117138     -0.008124     -0.120320
Cr	      8.38136      6.25975      6.16467         0.065949      0.076251      0.087250
Cr	      2.10337      6.28080      4.08806         0.067211      0.021129     -0.019639
Co	      8.35449     10.41235     10.19343        -0.310333     -0.159625     -0.223611
Ni	      4.18779      4.13110      0.10304         0.037344      0.071839      0.137352
Ni	      4.14131      8.35668      4.11194         0.004552     -0.342356     -0.068621
O	      2.07352      2.10196      2.14405         0.003193      0.003952     -0.069344
O	      4.18493      4.17996      2.18698         0.081456      0.017753      0.033397
O	      4.13049      2.14861      4.13530         0.005335      0.060837     -0.164932
O	      6.18376      4.25763      4.08128        -0.188586     -0.115019      0.019470
O	      6.19380      2.02176      6.00034         0.121712      0.089066      0.048439
O	      8.44600      4.26367      6.03143        -0.127635     -0.131161      0.450258
O	      2.21114      4.18086      4.07288        -0.178396     -0.013645      0.028038
O	      4.16159      6.19440      4.11407         0.033892      0.107048     -0.011021
O	      4.20635      4.06380      5.94239        -0.009965      0.169570      0.113529
O	      6.33067      6.25748      6.14975        -0.047216      0.023600     -0.058092
O	      6.26059      4.29664      8.21622        -0.012379      0.130685     -0.290511
O	      8.26013      6.26165      8.14871         0.042699      0.016792      0.142779
O	      1.99992      6.25712      6.01940         0.119851      0.026823      0.104288
O	      4.16810      8.44749      6.04753         0.029947     -0.071476      0.384614
O	      4.28189      6.24685      8.20657         0.179721     -0.008416     -0.304198
O	      6.27081      8.22873      8.28197        -0.022120      0.019306     -0.076732
O	      6.36079      6.24150     10.13241         0.145351      0.154645      0.003551
O	      8.30523      8.27951     10.20529         0.210024     -0.090590     -0.017007
