# total energy = -91.60794034 eV
 
CRYSTAL
PRIMVEC
2.204408 4.367572 2.163131 
4.307422 -2.146217 -2.136431 
0.010273 4.358206 -4.317844 
PRIMCOORD
16 1
Li	      2.28118      2.29075      0.01003        -0.012354      0.042851     -0.080836
Li	      4.47748      2.35358     -2.25413        -0.172124      0.518256     -0.111656
Li	      2.28515      4.56642     -2.24584         0.083218     -0.035640     -0.058547
Li	      4.59512      4.54023     -4.47339         0.099070     -0.324856      0.258061
Mn	      0.00432      0.18782     -0.17881         2.882019     -1.358761      1.913780
Mn	      2.35082      0.22344     -2.16096        -0.854592     -0.588659     -1.680387
Ni	      0.29726      2.39241     -2.26937        -1.551476      0.082552     -0.262065
Ni	      2.26269      2.28090     -4.48399         0.277569      0.130599      1.012418
O	      4.53346      4.59166     -2.09009        -0.055996     -0.097443      0.916507
O	      4.53835      2.30310     -4.63633        -0.337594      0.303460      0.228282
O	      4.69069      2.43043      0.02379        -1.318812      0.775631     -0.930202
O	      4.37034     -0.08975     -2.23801        -0.875781      1.966837      0.038871
O	      2.42638      4.56727      0.11769         0.390015     -0.000098     -1.363177
O	      2.26172      2.11094     -2.24961         0.942892      0.093121     -0.206895
O	      2.30885      7.02689     -2.24437         0.408761     -1.147747     -0.303869
O	      2.14397      4.57012     -4.61176         0.095187     -0.360102      0.629715
