# total energy = -229.75746149 eV
 
CRYSTAL
PRIMVEC
0.018260 6.219145 6.292097 
6.198256 0.021616 6.289332 
4.131507 4.143241 0.014535 
PRIMCOORD
36 1
Li	      6.23611      6.25997     12.45127         0.013166      0.013060     -0.320170
Li	      4.14425      2.10017      2.26298         0.072862     -0.104493     -0.136866
Li	      4.22852      6.28282     10.35287         0.163613     -0.188739     -0.134510
Li	      6.15930      8.24517     10.37086         0.189502     -0.189427     -0.126491
Li	      2.10198      4.12180      2.25403        -0.088161      0.019049     -0.102066
Li	      2.11288      2.11851      4.05275        -0.018033     -0.023337     -0.049275
Li	      6.27287      4.25024     10.39153        -0.211263      0.181721     -0.100469
Li	      8.19285      6.17813     10.40759        -0.138896      0.195998     -0.043463
Li	      8.24539      8.30433      8.60615        -0.015185      0.054680      0.091556
Ti	      8.33995      8.36337     12.45838         0.041041     -0.046787     -0.553395
Mn	      4.12344      6.21640      2.22851        -0.234629      0.483873     -0.353967
Cr	      4.17752      2.03489      6.23683         0.014224     -0.196550      0.697321
Cr	      6.21718      4.13219      6.24290         0.069748      0.115063      0.743291
Cr	      2.02805      4.20667      6.28698        -0.212525     -0.078768      0.832629
Cr	      4.12621      6.23729      6.31387         0.131892      0.089397      0.729089
Co	      4.11210      4.15242      4.22797        -0.068980     -0.009668     -0.218893
Co	      6.22079      6.22748      8.48610        -0.110164      0.016473      0.240876
Ni	      6.20979      4.13251      2.23266         0.412341     -0.084356     -0.215788
O	      1.96705      2.04520      1.96258         0.140722      0.215598      0.094821
O	      4.16063      4.26083      2.30675        -0.323187     -0.432433      0.423753
O	      4.10789      2.19783      4.29895        -0.076966      0.420279     -0.222909
O	      6.07481      4.17712      4.27829        -0.402534      0.106087      0.055183
O	      6.20415      2.13422      6.25421        -0.039068      0.014547     -0.181129
O	      8.22049      4.13865      6.23252        -0.040232      0.065825     -0.042673
O	      2.16139      4.14525      4.33152         0.470895     -0.088598     -0.275508
O	      4.13746      6.11918      4.33508         0.091818     -0.366360      0.039292
O	      4.12778      4.13655      6.19388        -0.010606     -0.047312     -0.227589
O	      6.22272      6.22121      6.45045         0.050258      0.022823     -0.603164
O	      6.20021      4.05876      8.27064         0.042028     -0.227244     -0.079636
O	      8.31522      6.21087      8.27942         0.377706     -0.065806     -0.282833
O	      2.13151      6.23697      6.36344        -0.023115      0.000034     -0.288877
O	      4.11588      8.25248      6.29222         0.057454     -0.048399     -0.031657
O	      4.18139      6.20582      8.31469        -0.346918      0.093357     -0.419593
O	      6.22256      8.33708      8.27643        -0.116331      0.073118     -0.181107
O	      6.20800      6.22299     10.31580         0.119514     -0.017496      0.762016
O	      8.27536      8.27257     10.66590         0.018012      0.034789      0.482199
