# total energy = -225.76617343 eV
 
CRYSTAL
PRIMVEC
-0.010241 6.344193 6.194015 
6.226789 -0.002195 6.185698 
4.155809 4.228526 -0.005958 
PRIMCOORD
36 1
Li	      2.15141      6.34615      8.32649        -0.021647     -0.043136      0.021162
Li	      4.16210      8.38027      8.29214         0.064703      0.034215      0.025362
Li	      4.17408      6.30982     10.12332         0.028808     -0.032125      0.063793
Li	      6.22540      8.41495     10.21689        -0.023208      0.009571     -0.096023
Li	      6.23138      2.09112      8.21662         0.006541     -0.010462      0.008434
Li	      6.24481      6.26261      4.11897         0.043430      0.021403      0.034271
Li	      6.20550      4.21744      6.19196         0.034461     -0.000160      0.018598
Li	      4.15189      4.37014      8.30716        -0.041006      0.018389     -0.004321
Li	      6.12438      6.35655      8.29359         0.052865      0.063392     -0.038308
Ti	      1.99374      4.12181      2.05737        -0.278061     -0.198331     -0.001786
Mn	      4.18506      2.15182      6.21550         0.002423      0.011037     -0.032974
Cr	      8.25314      2.09906      6.17494        -0.030446     -0.028956     -0.011961
Cr	      4.29826      4.22183      4.09590         0.094793     -0.110010     -0.057780
Cr	      8.25352      6.37771     10.23678        -0.093714      0.044146     -0.041972
Cr	      6.22070      8.46142      6.28724        -0.033929      0.069319     -0.114419
Cu	      4.20900      6.31972      6.28700         0.043486      0.042720      0.054007
Ni	     10.36522      4.23559      6.18911        -0.050330     -0.017848      0.013942
Ni	      6.18176      4.25382     10.28861        -0.002941     -0.056145     -0.075816
O	      4.14785      6.35460      8.18411         0.004044      0.047022      0.004240
O	      2.07342      2.21552      1.99631        -0.028519      0.210338     -0.002136
O	      4.05700      4.20781      2.15445        -0.055952      0.030554      0.106305
O	      4.13178      2.33078      4.26654        -0.000793      0.126624      0.074665
O	      6.07162      4.29516      4.13157        -0.071891      0.007450      0.013891
O	      6.21906      2.05371      6.18447        -0.028107      0.083557     -0.001137
O	      8.30963      4.13991      6.25997        -0.115433     -0.027323      0.096083
O	      2.11927      4.31955      4.11788         0.115624     -0.004795     -0.114033
O	      4.06214      6.22179      4.23907         0.003573     -0.057472     -0.104649
O	      4.08660      4.26547      6.14575         0.128819      0.037119     -0.059031
O	      6.36457      6.51494      6.16727        -0.126625     -0.127289      0.002791
O	      6.34464      4.18580      8.29585         0.328471     -0.031841     -0.183427
O	      8.33667      6.19247      8.19213        -0.013149     -0.088188     -0.006577
O	      1.99911      6.35531      6.08822         0.202176      0.059278      0.010395
O	      4.14172      8.45922      6.13695        -0.078883     -0.097676      0.097780
O	      6.23392      8.50060      8.12083         0.002042      0.015356      0.310251
O	      6.27464      6.30055     10.32921         0.033425      0.040774     -0.038972
O	      8.30704      8.36145     10.37173        -0.095048     -0.040507      0.029355
