# total energy = -226.33140024 eV
 
CRYSTAL
PRIMVEC
0.024044 6.206983 6.302603 
6.155691 0.025057 6.300942 
4.130601 4.163309 -0.009901 
PRIMCOORD
36 1
Li	      6.10904      0.09602      6.19220        -0.009271     -0.039213      0.038506
Li	      6.19681     10.34592      8.41583        -0.026521     -0.016477      0.005601
Li	      6.13413      2.05694      4.30125         0.030700      0.041266      0.022464
Li	      4.13709      4.19051      4.21664         0.022442     -0.072338     -0.005784
Li	      4.17783      2.04452      6.24668        -0.015803     -0.026872      0.066068
Li	      6.19956      4.14120      6.24557        -0.016585      0.027355      0.037717
Li	      6.16669      4.26139     10.49980        -0.015581      0.011531      0.011607
Li	      2.05295      6.14751      4.25264        -0.047123     -0.015769     -0.072015
Li	      6.17645      6.24753      8.48150         0.088183      0.002741      0.035189
Ti	      4.07374      4.18414      8.35992         0.004141     -0.099462     -0.167445
Mn	      8.16795      4.22188      8.44381        -0.018859      0.059578      0.019600
Cr	      8.21086      8.30084     12.55744         0.032812     -0.010417      0.084867
Cr	      4.22379      8.26968      8.38906        -0.062350      0.015453     -0.112587
Cr	      4.12875      6.18267      2.09910        -0.095111     -0.059346      0.039551
Cr	      6.21142      6.20563      4.21834        -0.056738      0.100793      0.102146
Cu	      4.12388      0.04268      4.24380        -0.005777     -0.063550     -0.098977
Cu	      4.14833      6.23214      6.20634         0.040888     -0.062023     -0.010336
Ni	      2.05052      4.21137      6.21099         0.015292      0.023227     -0.063774
O	      5.99748      6.23588     10.51478         0.124088      0.079653     -0.006064
O	      2.09587      1.98819      2.07733        -0.010298      0.046939      0.022867
O	      4.02855      4.09549      2.14750         0.072083      0.065964      0.044071
O	      4.11233      1.95850      4.10051        -0.031067      0.125475     -0.003537
O	      6.35961      4.24514      4.21803        -0.084254     -0.072653     -0.012304
O	      6.23650      2.06102      6.43953        -0.046415      0.037376     -0.022906
O	      8.19776      4.09456      6.55171        -0.002407      0.009657     -0.090525
O	      2.04875      4.09645      4.10343         0.028167     -0.157494     -0.022879
O	      4.23972      6.15911      4.13371         0.009342      0.079848     -0.109024
O	      4.10177      4.20803      6.43189         0.141168     -0.129481      0.039319
O	      6.14740      6.33770      6.16361         0.061015     -0.159686     -0.084828
O	      6.09600      4.06443      8.42991         0.001925      0.008846      0.044335
O	      8.29232      6.40239      8.45239         0.007881      0.111285      0.037208
O	      2.15336      6.27061      6.19667        -0.101055      0.143442      0.004229
O	      4.10655      8.23930      6.38145        -0.084616      0.157667      0.003365
O	      4.17982      6.21155      8.23316         0.000796      0.021796      0.151997
O	      6.24378      8.33682      8.34054         0.048024     -0.012741      0.063708
O	      8.21849      8.50865     10.50436         0.000885     -0.172368      0.008570
