# total energy = -225.31977686 eV
 
CRYSTAL
PRIMVEC
-0.015065 6.315922 6.229855 
6.296610 -0.026472 6.241517 
4.178336 4.198963 0.001526 
PRIMCOORD
36 1
Li	      4.17679     10.33615      6.31751         0.064024     -0.006907      0.065790
Li	      2.21439      8.41035      6.24123         0.067138     -0.037352      0.092952
Li	      4.21707      8.43896      8.12472        -0.004701      0.153020     -0.049893
Li	      2.14242      4.09319      2.18258         0.032345     -0.070268      0.115720
Li	      1.99101      2.30007      4.12307        -0.076266      0.160388      0.026552
Li	      4.06891      4.23857      4.14711        -0.098489      0.045000     -0.015356
Li	      4.23508      8.33755      4.29077         0.113919     -0.069580      0.010913
Li	      6.15895      8.45965      6.19302        -0.098630      0.107361     -0.155715
Li	      4.16763      6.50145      6.22130        -0.054178      0.065916     -0.084363
Ti	      8.34787      6.26765      6.23655        -0.066004      0.102844      0.083019
Mn	      4.19693      6.23712      2.14727        -0.015972     -0.108227      0.209226
Cr	      2.08975      6.35278      8.21411        -0.229392      0.090331     -0.044706
Cr	      4.21762      6.26628     10.37377         0.118368     -0.025883      0.058364
Cr	      6.28850      4.14152      6.24944        -0.073505     -0.101277      0.072717
Cr	      2.08351      6.22695      4.22078         0.191683     -0.054124      0.022886
Cu	      6.29482      8.39201     10.33921        -0.044903      0.016591     -0.046384
Cu	      4.16495      4.23430      8.26550         0.088929     -0.051438     -0.007346
Cu	      6.22363      6.36179      8.30017         0.105475     -0.119734     -0.049517
O	      4.16288      8.42408      6.20780        -0.074445      0.044942      0.054068
O	      6.37745      8.55558      8.17833        -0.025727      0.131351      0.164659
O	      1.90764      2.04249      2.12849         0.122566      0.009865      0.016573
O	      4.30017      4.31460      2.10759        -0.035324     -0.002348     -0.012985
O	      4.26142      1.98594      4.33852        -0.039397     -0.026788      0.039197
O	      6.40619      4.08545      4.17123        -0.022075     -0.002158      0.080113
O	      6.18528      2.11642      6.42123        -0.092174      0.033141     -0.190935
O	      8.30935      4.23164      6.17686        -0.002575      0.096718     -0.119560
O	      2.05103      4.33168      4.20139         0.061590     -0.193980     -0.071206
O	      4.06084      6.29505      4.05383         0.107037      0.009250     -0.033679
O	      4.28655      4.01697      6.24471         0.004635     -0.203634     -0.054738
O	      6.38879      6.17317      6.35396         0.082308     -0.068897     -0.030275
O	      6.18491      4.01262      8.23955         0.068738     -0.041417     -0.079159
O	      8.48653      6.10321      8.33548        -0.097267      0.127053     -0.134255
O	      2.07685      6.38381      6.19597         0.033506      0.029666      0.146976
O	      4.12001      6.46088      8.39746         0.087203     -0.234246      0.002845
O	      6.28325      6.39645     10.24786        -0.183649     -0.025129     -0.031600
O	      8.30304      8.39171     10.28958        -0.014791      0.219949     -0.050897
