# total energy = -233.42771999 eV
 
CRYSTAL
PRIMVEC
0.004793 6.331286 6.191559 
6.268363 0.032102 6.165153 
4.185985 4.209995 0.013947 
PRIMCOORD
36 1
Li	      6.27459      6.30985     12.29821         0.048889     -0.032858      0.045451
Li	      6.25799      8.32993     10.30472         0.027212     -0.055715     -0.006968
Li	      4.11979      6.33282      2.22073        -0.008570      0.014567     -0.045584
Li	      6.16492      6.39788      4.17718        -0.006492      0.026148     -0.032970
Li	      4.06081      4.48050      4.13290        -0.055528      0.084683     -0.014823
Li	      2.17293      6.22411      4.11408         0.004609      0.004014      0.013851
Li	      2.11577      4.16420      6.09697         0.007568     -0.022777     -0.018028
Li	      4.26449      6.33486      6.01247         0.015431      0.030837      0.071198
Li	      6.30967      6.32614      8.26851        -0.033356     -0.008978     -0.023150
Ti	      2.02726      8.29721      6.20463        -0.009923     -0.451700      0.037662
Mn	      8.32075      8.41907      8.23874        -0.077042      0.035253     -0.068106
Cr	      6.26401      4.23546      2.16363        -0.014671     -0.034359     -0.078835
Cr	      4.18093      2.13282      6.11814         0.016863     -0.018784     -0.077059
Cr	      6.25885      4.28788      6.13662        -0.038926      0.010332      0.026099
Cr	      0.04404      4.21060      4.13608         0.026056     -0.053336     -0.032151
Fe	      4.26772      8.47444      8.29442         0.091129     -0.168214     -0.035016
Co	      4.22465      6.34462     10.32428         0.173609      0.020273     -0.026535
Cu	      2.15668      4.32926      2.15369         0.005263      0.006818     -0.152655
O	      2.18608      2.08142      1.96926        -0.054974      0.016304     -0.033976
O	      4.29218      4.07510      2.13804         0.055792      0.179375      0.021547
O	      4.24191      1.92207      4.08897         0.037976      0.034414      0.136148
O	      6.45515      4.22598      4.14140        -0.066571     -0.000844      0.052562
O	      6.34321      2.22293      6.17095         0.046116     -0.035692      0.005777
O	      8.30641      4.26077      6.18155        -0.028655     -0.056045     -0.012671
O	      1.99489      4.26783      4.04875        -0.057421     -0.011813      0.204246
O	      4.16318      6.45301      4.12473         0.007663      0.030525     -0.005714
O	      4.25565      4.13734      6.13103         0.034082      0.006183      0.097221
O	      6.39667      6.25306      6.16778        -0.049997      0.042268     -0.030526
O	      6.05732      4.26013      8.20659         0.097915     -0.001878      0.034253
O	      8.34564      6.39093      8.12265        -0.016806     -0.125406      0.102735
O	      2.04875      6.45583      6.28806        -0.019499      0.497098     -0.050436
O	      4.06304      8.42588      6.21875        -0.078405      0.011281     -0.056246
O	      4.11678      6.36386      8.38773         0.022763      0.089253     -0.059919
O	      6.33014      8.55412      8.22781        -0.040331     -0.030497      0.028688
O	      6.14009      6.26202     10.30994        -0.011911      0.041834      0.014824
O	      8.42147      8.57033     10.39775        -0.049857     -0.072563     -0.030894
