# total energy = -233.72993945 eV
 
CRYSTAL
PRIMVEC
-0.035209 6.298292 6.336967 
6.176336 0.001161 6.301120 
4.112271 4.169721 0.005992 
PRIMCOORD
36 1
Li	      0.03136      6.21742      6.31356        -0.000404     -0.007565      0.038744
Li	      2.09213      8.30227      6.33894        -0.024353     -0.023146      0.045760
Li	      6.11831      4.15152      2.12561        -0.023444      0.020287     -0.014082
Li	      4.22820      8.31939      8.36931        -0.005036     -0.024222     -0.059832
Li	      6.10485      8.38841     10.43380        -0.016575      0.032068     -0.028276
Li	      6.17313      6.16417      4.22102         0.041041     -0.045664     -0.017571
Li	      4.19085      4.19299      4.15243         0.050305     -0.019818     -0.007253
Li	      4.04728      8.41902      4.32841        -0.000608      0.009982     -0.008642
Li	      6.04967      6.40533      8.48281         0.004228      0.032298     -0.010830
Ti	      2.11943      4.03287      2.23634         0.222340     -0.190705      0.157179
Mn	      4.14542      6.32137     10.52054        -0.003468     -0.026850      0.014333
Cr	      4.10562      2.10925      6.30008         0.024828     -0.001038      0.008093
Cr	      6.18735      4.16807      6.30900        -0.018132     -0.015454     -0.045729
Cr	      8.14283      6.33520     10.52708        -0.021277     -0.003271      0.013125
Cr	      4.08903      6.35084      6.27192        -0.038434      0.022705     -0.034176
Fe	      8.07961      8.46500      8.46596         0.128599     -0.068538     -0.072852
Co	      4.08717      6.28892      2.16114         0.009476     -0.093533      0.024744
Ni	      6.08701      8.38359      6.30900         0.040751     -0.012022     -0.094054
O	      1.93109      2.19188      2.15769         0.009880      0.220868      0.034115
O	      3.99681      4.30109      2.13246        -0.233632      0.026542      0.027161
O	      4.15234      1.97145      4.34828        -0.035206      0.008559      0.001948
O	      6.34017      4.14992      4.33299        -0.027629     -0.018047      0.024628
O	      6.09245      2.17829      6.51725         0.024369     -0.025285      0.035929
O	      8.16894      4.28754      6.48402         0.015644     -0.039614      0.075207
O	      1.99987      4.30435      4.12057         0.013684     -0.035190     -0.254517
O	      3.98243      6.27326      4.17185        -0.003441      0.024799      0.025446
O	      4.14142      4.17123      6.32855         0.096032      0.001981      0.021187
O	      6.16358      6.22332      6.30179         0.019232     -0.090030      0.006398
O	      6.18046      4.06769      8.35088        -0.009965      0.026598      0.004815
O	      8.29937      6.29635      8.42550         0.001644      0.011265      0.015011
O	      2.09726      6.26999      6.18587         0.016008      0.130837      0.001086
O	      4.09760      8.27725      6.34124        -0.178719      0.008635     -0.032317
O	      4.08693      6.23332      8.30050         0.000080      0.098106     -0.030974
O	      6.19538      8.38105      8.34645        -0.067916      0.001945      0.087215
O	      6.10553      6.29336     10.52983         0.005432      0.035344     -0.027969
O	      8.19560      8.40700     10.43144        -0.015335      0.027176      0.076951
