# total energy = -235.67227491 eV
 
CRYSTAL
PRIMVEC
0.049358 6.336771 6.277436 
6.156188 0.053145 6.272484 
4.139474 4.255859 0.000983 
PRIMCOORD
36 1
Li	      0.11415      6.24568      6.20642        -0.004693     -0.051998      0.009107
Li	      4.25376      8.54339      8.33423         0.030102      0.008096     -0.014163
Li	      6.21555      8.37729     10.42217        -0.032731     -0.001296      0.040056
Li	      4.11422      6.32858      2.10778        -0.042013     -0.005935     -0.058447
Li	      4.12938      4.25915      4.15081        -0.006206     -0.010956      0.038237
Li	      6.19423      4.39584     10.52107         0.012523      0.002743      0.036010
Li	      8.13829      6.36551     10.45258        -0.009441     -0.044808      0.013044
Li	      6.14644      8.56357      6.30171        -0.046328     -0.017432      0.031352
Li	      6.23025      6.41113      8.49373         0.039289     -0.012486     -0.040069
Ti	      2.01440      2.21866      4.15787        -0.094207      0.178605      0.126912
Mn	      8.25494      8.47951     12.48765        -0.172632     -0.039471     -0.024800
Cr	      6.09540      4.21685      2.11681        -0.027380      0.018348      0.052277
Cr	      4.24191      6.38757     10.43362         0.009397      0.075647     -0.001583
Cr	      8.26909      4.33606      8.36525        -0.036492      0.118937     -0.028299
Cr	      4.15907      6.37289      6.30695         0.046686      0.038098     -0.007278
Fe	      8.26949      8.40482      8.41718         0.128073     -0.060706     -0.048861
Co	      4.21166      2.18048      6.28221        -0.393455     -0.052445     -0.109895
Co	      6.20778      4.28295      6.25331        -0.083130     -0.049644      0.057443
O	      2.03524      2.14124      2.20609         0.031625     -0.009524      0.126492
O	      4.11149      4.26147      2.05971         0.012361     -0.032922      0.026803
O	      4.02966      2.06613      4.26712         0.108633      0.006767      0.344394
O	      6.25156      4.37971      4.18764         0.011530      0.040266     -0.019434
O	      6.24871      2.36393      6.23253         0.056332      0.059707     -0.013066
O	      8.16726      4.22422      6.26315        -0.044130      0.159820      0.019179
O	      2.08798      4.13254      4.09773        -0.022905     -0.135888     -0.015680
O	      4.25830      6.34366      4.32233         0.125239     -0.010709     -0.015219
O	      4.28274      4.32576      6.35731         0.060485     -0.171899     -0.070179
O	      6.19049      6.28858      6.19808         0.170908     -0.037318     -0.097267
O	      6.23020      4.29543      8.17315         0.023096     -0.010750     -0.079392
O	      8.26871      6.37665      8.31612         0.116597     -0.044869     -0.374841
O	      2.13287      6.40973      6.38993         0.037188     -0.027810     -0.012192
O	      4.01722      8.34760      6.30245         0.043295      0.042896      0.021655
O	      4.05371      6.29664      8.39060         0.026157      0.054391     -0.032407
O	      6.28978      8.58985      8.31894        -0.086623      0.032697      0.023548
O	      6.15488      6.40047     10.48711         0.010366     -0.034834     -0.009843
O	      8.32474      8.60916     10.36180         0.002484      0.026682      0.106407
