# total energy = -230.44025137 eV
 
CRYSTAL
PRIMVEC
0.015226 6.234699 6.205669 
6.301548 0.003463 6.217574 
4.200582 4.163959 0.002757 
PRIMCOORD
36 1
Li	      6.26643      4.19340      2.07571        -0.024425     -0.018931     -0.002503
Li	      4.17141      2.11806      2.06564        -0.026027      0.025246     -0.001139
Li	      6.29004      2.09432      4.13148         0.037580     -0.002550     -0.003016
Li	      0.02751      2.07624      2.06852        -0.011331     -0.037773     -0.003223
Li	      2.09350      4.14717      2.07504         0.008824     -0.002537      0.035355
Li	      2.05986      2.10067      4.08316        -0.084522      0.069861     -0.126499
Li	      8.38331      6.24734      6.28737         0.005295      0.016179      0.116323
Li	      4.27468      6.22292      6.21299         0.029696     -0.026100     -0.044163
Li	      6.35341      6.22814      8.21262         0.037597      0.027689     -0.056771
Ti	      4.11185      0.19141      4.06303        -0.045706      0.300378     -0.271183
Mn	      4.17954      4.19320      0.09693        -0.031619     -0.081462      0.034419
Cr	      4.24238      4.16368      4.08943        -0.020228     -0.045025      0.018710
Cr	      8.40972      6.24500     10.31251        -0.015023     -0.015612     -0.064651
Cr	      6.30524      8.22139      6.28763         0.015714      0.207515      0.082818
Cr	      4.22646      4.13346      8.25440        -0.029918      0.006206     -0.035550
Fe	      2.08669      2.05327      0.19501         0.061691     -0.085456     -0.224492
Cu	      6.32164      4.22500      6.29307         0.078006      0.120993     -0.019425
Ni	      0.05103      4.09852      4.07505         0.050300     -0.041433     -0.010923
O	      2.12751      2.07151      2.01184         0.005804     -0.016054      0.263180
O	      4.21375      4.12813      2.05710         0.012010      0.018374     -0.034834
O	      4.22951      2.03881      4.11288         0.015415     -0.252382      0.040257
O	      6.35073      4.16918      4.24673         0.089695      0.002733     -0.086133
O	      6.39423      1.94725      6.20703        -0.049427      0.003551      0.012520
O	      8.45039      4.09792      6.12347         0.085360      0.070234      0.069886
O	      2.17884      4.23131      4.20942         0.017382      0.027579     -0.113063
O	      4.10232      6.16371      4.13696        -0.045160     -0.059332     -0.021754
O	      4.10979      4.13860      6.17448         0.040219      0.002033     -0.020853
O	      6.26552      6.36263      6.13681        -0.080557     -0.248534     -0.179022
O	      6.22233      4.17746      8.23700         0.014111     -0.004127      0.040857
O	      8.37497      6.32349      8.36471        -0.039570      0.003160     -0.028620
O	      2.06003      6.20647      6.13320         0.012973     -0.023900     -0.001269
O	      4.24024      8.40514      6.17482        -0.036529     -0.027830      0.093746
O	      4.22458      6.17465      8.43442         0.015946      0.013245      0.308844
O	      6.42909      8.33972      8.16624         0.004293      0.029607      0.126365
O	      6.26668      6.20381     10.49903         0.001741      0.060333      0.050434
O	      8.46813      8.31221     10.30876        -0.099611     -0.015878      0.055372
