# total energy = -230.34101305 eV
 
CRYSTAL
PRIMVEC
0.003638 6.184765 6.344872 
6.260383 0.009288 6.339281 
4.177878 4.123699 0.001836 
PRIMCOORD
36 1
Li	      8.32408      2.09631      6.34647        -0.014192      0.046795     -0.008592
Li	      4.07482      0.06130      4.18267        -0.005987      0.043203     -0.048676
Li	      6.21043      2.16774      8.45392        -0.015428     -0.011886      0.040527
Li	      6.35105      6.12999      4.37309         0.050705     -0.030824     -0.008635
Li	      8.21709      6.23517      6.36393         0.047715     -0.029137     -0.031057
Li	      6.33486      8.09502      6.39874         0.013015     -0.015954      0.047998
Li	      4.34762      6.11085      6.39745         0.027074     -0.043495      0.026520
Li	      4.23122      4.10820      8.35261         0.024686      0.011240     -0.019774
Li	      6.27466      6.13755      8.27299        -0.015332     -0.044539      0.009097
Ti	     10.29564      4.21972      6.38975        -0.340482      0.073446     -0.000601
Mn	      2.10491      6.16599      4.25599        -0.039905      0.038541      0.120002
Cr	      4.19134      8.23307      8.40562         0.003094     -0.062018     -0.031483
Cr	      6.29126      8.26943     10.51416         0.033263     -0.006745     -0.014028
Cr	      4.17799      4.13617      4.30214        -0.036002      0.030225     -0.058772
Cr	      4.17787      8.20619      4.27007         0.009905      0.026599      0.078069
Fe	      2.19915      6.24153      8.33202        -0.125117     -0.043848      0.041235
Cu	      8.23172      4.10855      8.43130         0.008624     -0.027636     -0.154828
Cu	      6.25556      4.18082      6.38049         0.110946     -0.162228      0.039326
O	      6.29396      6.09119      6.32246         0.026097      0.117131     -0.001385
O	      2.17449      2.06583      2.11622        -0.022287      0.028021     -0.022608
O	      4.19534      4.12481      2.06004         0.066043      0.052062     -0.012644
O	      4.28788      2.15160      4.07196        -0.052727      0.017049     -0.004471
O	      6.17324      4.06521      4.04017        -0.006174      0.027840     -0.100527
O	      6.25712      2.04981      6.22082        -0.015474     -0.122261     -0.006126
O	      8.44238      4.16006      6.21595         0.244753      0.020326     -0.079500
O	      2.08447      4.23493      4.39100         0.039128      0.039365      0.165809
O	      4.01085      6.18863      4.30164         0.029197     -0.017976      0.023472
O	      4.27229      4.09336      6.21849        -0.057866     -0.025686      0.029916
O	      6.29463      4.09547      8.68732        -0.077986     -0.003111      0.158879
O	      8.33359      6.07321      8.70585         0.000821      0.061684      0.092283
O	      1.95335      6.22806      6.34136        -0.055327      0.006709     -0.162569
O	      4.15489      8.40179      6.35107        -0.006943      0.053573      0.010214
O	      4.11405      6.26538      8.44773         0.151606      0.012016     -0.038157
O	      6.21665      8.30925      8.50870         0.016050     -0.047675     -0.066965
O	      6.38493      6.18220     10.69989        -0.014580      0.013751      0.011591
O	      8.36810      8.10631     10.56391        -0.000912     -0.024557     -0.023541
