# total energy = -230.16092812 eV
 
CRYSTAL
PRIMVEC
0.019784 6.141712 6.271104 
6.341215 0.005893 6.284893 
4.222958 4.098882 0.008638 
PRIMCOORD
36 1
Li	      0.12146      6.15238      6.35603         0.114825     -0.009237     -0.048776
Li	      2.06240      1.98787      0.12151         0.019357     -0.001334      0.007159
Li	      2.10961      6.15619      8.19840         0.009652     -0.023697     -0.044393
Li	      8.50584      4.07379      8.26819        -0.028441     -0.004981     -0.021765
Li	      4.26414      4.05388      4.18554         0.016089      0.016658     -0.020212
Li	      8.40789      6.14112      6.35030         0.013559      0.009778      0.020806
Li	      2.18143      4.15041      6.33257         0.021145     -0.027201      0.009605
Li	      4.17369      6.09288      6.34889        -0.010322      0.034854     -0.008907
Li	      6.35125      6.19900      8.25594         0.017768      0.019505     -0.030283
Ti	      4.30818      8.22729      4.35463         0.292891     -0.013035      0.357905
Mn	      4.20195      8.21087      8.29588         0.005090      0.041719     -0.064836
Cr	      6.31194      2.06327      4.19653        -0.099110      0.080082      0.006733
Cr	      4.24476      6.08212      2.06227         0.040042     -0.116373     -0.041125
Cr	      2.14395      6.11989      4.25117         0.013891     -0.123459      0.072901
Cr	      4.23406      4.13585      8.32816        -0.058111      0.073732     -0.105897
Fe	      6.37975      4.17579      6.27726        -0.130474     -0.066071      0.016557
Ni	      8.42094      4.12653      4.21658         0.058206      0.008956      0.003405
Ni	      6.36080      6.11246      4.17674         0.016372      0.054325      0.023375
O	      2.02191      2.02191      2.16020        -0.092408      0.019219     -0.161442
O	      4.16286      4.02538      2.04733         0.038687      0.035661      0.025605
O	      4.30721      2.05554      4.04745         0.089031      0.089565     -0.066650
O	      6.34862      4.04184      4.24541        -0.078174     -0.155237     -0.030940
O	      6.32991      2.16849      6.27993        -0.018396     -0.091243      0.004004
O	      8.24030      4.11865      6.24619         0.189511     -0.007096      0.103105
O	      1.97167      4.10174      4.20958        -0.342862      0.176486      0.038603
O	      4.18356      6.22340      4.09982        -0.117539      0.105005      0.038166
O	      4.43644      4.11979      6.37982        -0.169889     -0.016157      0.027162
O	      6.37718      6.04630      6.20095        -0.009803      0.149257      0.154756
O	      6.26755      4.04115      8.46287        -0.016025     -0.026122      0.063790
O	      8.55603      6.22650      8.46854         0.016174      0.023674      0.034385
O	      2.15316      6.12211      6.15811        -0.032008      0.011264     -0.022335
O	      4.19961      8.18240      6.21136         0.034945      0.016669     -0.318359
O	      4.28418      6.23026      8.41873         0.017189     -0.043642     -0.067954
O	      6.45569      8.19825      8.47862         0.065674     -0.008652     -0.003604
O	      6.40171      6.11506     10.49909         0.078686     -0.120415      0.028295
O	      8.45864      8.17402     10.40738         0.034776     -0.112457      0.021160
