# total energy = -236.81534271 eV
 
CRYSTAL
PRIMVEC
0.039914 6.299917 6.204393 
6.373995 0.054037 6.189706 
4.264519 4.205360 0.021595 
PRIMCOORD
36 1
Li	      4.39962      6.31045     10.33164         0.021773     -0.037394      0.018134
Li	      6.43079      8.33181     10.33386         0.059404     -0.010622      0.039810
Li	      8.44232      4.38879      8.38447        -0.042073      0.004579     -0.001383
Li	      4.11523      4.19991      4.22291        -0.019923     -0.010518      0.015219
Li	      4.24007      2.17123      6.17904        -0.014195      0.050234     -0.019380
Li	      0.12296      4.26618      4.11368        -0.028100      0.018542      0.039603
Li	      2.07675      6.17600      4.11988        -0.029418     -0.006175      0.028665
Li	      2.18398      4.22081      6.09285         0.007509     -0.053821      0.018131
Li	      6.52310      6.29979      8.38426         0.052831     -0.030483      0.023966
Ti	      6.45680      4.21277      6.10870        -0.034058     -0.100958     -0.097465
Mn	      6.37810      6.33651     12.28846        -0.033522     -0.003869     -0.117143
Cr	      6.39903      4.21312      2.10462        -0.013806      0.065894      0.052486
Cr	     10.59580      6.35829      8.32028        -0.015340      0.016609     -0.041606
Cr	      2.15493      2.20919      4.13091         0.045610      0.058337      0.010539
Cr	      4.26962      6.33532      6.15070         0.050801      0.073420     -0.028430
Fe	      4.41294      8.40730      8.35639        -0.083800      0.010983     -0.180393
Fe	      8.52993      8.35639      8.44263        -0.029500      0.096240     -0.126135
Co	      8.53753      8.48125     12.30753        -0.192212      0.016295      0.032537
O	      2.07194      2.02919      2.08720         0.020944     -0.009574     -0.005137
O	      4.36369      4.22885      1.93984         0.038702      0.032800     -0.056008
O	      4.17037      2.14884      4.02798        -0.065345     -0.009279      0.159049
O	      6.38302      4.28099      4.17334        -0.003678      0.017816      0.104225
O	      6.33807      2.18399      6.25779        -0.149739      0.029361     -0.000661
O	      8.40291      4.18736      6.20813        -0.126746     -0.240008     -0.007848
O	      2.15240      4.13087      4.13985         0.033172     -0.027808      0.010410
O	      4.39295      6.31093      4.14029         0.034256      0.006808      0.013922
O	      4.39652      4.33366      6.27248         0.015611      0.054605      0.003420
O	      6.33068      6.21352      6.17143        -0.000176     -0.155390     -0.062604
O	      6.33325      4.16319      8.15597         0.021582     -0.048427     -0.075686
O	      8.61127      6.40124      8.27639         0.013913     -0.038595      0.021840
O	      2.23301      6.42328      6.26506         0.121911      0.244577     -0.010058
O	      4.28221      8.41866      6.33341         0.247926     -0.008099      0.021659
O	      4.20015      6.35652      8.18363        -0.055791     -0.056305     -0.008733
O	      6.40784      8.50382      8.27864         0.143068      0.066798     -0.023820
O	      6.40405      6.34378     10.46251        -0.028813      0.002828      0.042017
O	      8.52491      8.47969     10.30185         0.037223     -0.019401      0.206857
