# total energy = -235.14963340 eV
 
CRYSTAL
PRIMVEC
0.039403 6.161718 6.420171 
6.317873 0.019543 6.440638 
4.213559 4.122572 0.011447 
PRIMCOORD
36 1
Li	      4.37291      8.22104      8.53962        -0.014076     -0.022792     -0.008696
Li	      6.29327      8.23996     10.63355        -0.035207     -0.005297     -0.056998
Li	      2.11370      4.13148      2.25020         0.030726     -0.003761      0.060832
Li	      4.25148      4.09338      4.38853         0.005768     -0.039155     -0.002303
Li	      6.23284      4.20672      6.40515         0.043631     -0.065316      0.010323
Li	      0.09119      4.13177      4.33953        -0.001480     -0.006454      0.053808
Li	      6.34879      8.16044      6.46906         0.008784      0.036702      0.007075
Li	      4.34218      6.21723      6.42954        -0.024044      0.085227      0.044100
Li	      6.33392      6.20642      8.50297         0.020166     -0.047257     -0.022196
Ti	      6.31045      2.15597      8.64365         0.029992      0.061412      0.067838
Mn	      4.27629      6.15301     10.66956         0.024413      0.066485     -0.055674
Cr	      4.24793     10.24670      6.42259        -0.025961     -0.085425      0.052292
Cr	      8.42101      2.11138      6.43878         0.087431      0.068087      0.008415
Cr	      6.29579      4.09940      2.18063         0.007801     -0.038313     -0.015808
Cr	      2.14546      6.09054      4.33887        -0.037022      0.022597      0.051355
Fe	      6.38038      6.25716      4.42844        -0.060679     -0.070175     -0.239913
Fe	      4.17728      4.10860      8.43072        -0.077190      0.053004      0.137464
Cu	      4.20425      2.13612      6.37049        -0.063054     -0.067976      0.061247
O	      1.97936      2.04102      2.06315        -0.099038     -0.020671      0.064669
O	      4.28389      4.19780      2.02462        -0.020134      0.096028      0.011480
O	      4.14914      1.90993      4.16274         0.054775      0.011433     -0.142098
O	      6.26251      4.22459      4.15751         0.023016     -0.023142      0.025705
O	      6.29736      2.02827      6.56099         0.208503      0.043900      0.126747
O	      8.51210      4.13808      6.28832        -0.016385     -0.074685     -0.015255
O	      2.16329      4.08743      4.28183        -0.006455      0.172058      0.027030
O	      4.24160      6.16662      4.16656        -0.038131     -0.000670     -0.101686
O	      4.23930      4.08234      6.52672         0.019726      0.008811     -0.205935
O	      6.42910      6.18692      6.34788        -0.125363     -0.104182      0.169760
O	      6.25429      4.01867      8.54997         0.022042     -0.106849      0.011606
O	      8.52243      6.19799      8.78504         0.088704     -0.029304      0.103681
O	      2.07395      6.23637      6.43546        -0.002908      0.014799     -0.028826
O	      4.10622      8.26438      6.48030        -0.038213      0.083917     -0.024494
O	      4.17210      6.08489      8.69109         0.006529      0.040077     -0.100089
O	      6.42678      8.28993      8.58986        -0.010763     -0.030567     -0.070515
O	      6.47818      6.16709     10.85108         0.031294      0.012988      0.013379
O	      8.45909      8.26025     10.82943        -0.017198     -0.035536     -0.018319
