# total energy = -236.07440897 eV
 
CRYSTAL
PRIMVEC
0.019199 6.217552 6.335699 
6.273150 0.010137 6.344984 
4.182411 4.151699 0.006353 
PRIMCOORD
36 1
Li	      2.08958      0.01096      2.11950         0.006800     -0.059111     -0.018396
Li	      4.16241      2.09759      2.18893         0.011927      0.002065     -0.033238
Li	      6.16597      2.08890      4.19586        -0.083520     -0.001762     -0.013100
Li	      2.12966      4.16108      2.12039         0.010850      0.030990     -0.016528
Li	      4.21263      4.07165      4.16654         0.044551     -0.047731     -0.072847
Li	      4.18647      2.08101      6.32130         0.030380      0.003508      0.000506
Li	      8.37782      6.23174     10.53658         0.019094      0.048153      0.008654
Li	      4.18763      6.24381      6.37921         0.007758      0.032678      0.039320
Li	      6.30141      6.23943      8.47260        -0.003804      0.029426      0.032625
Ti	      2.21842      4.15635      6.37239         0.162393      0.141433      0.377967
Mn	      8.33853      8.29240      8.51991        -0.151335     -0.005331      0.015966
Cr	      4.18167      0.03049      4.21171         0.020490     -0.061961     -0.061115
Cr	      2.13611      2.08348      4.17638         0.035618     -0.098872     -0.124896
Cr	      6.27641      4.19177      6.34317        -0.088761     -0.038649      0.024262
Cr	      0.04439      4.16327      4.22494        -0.142067      0.075251     -0.022297
Fe	     10.44351      4.20226      6.38890        -0.050494      0.030802     -0.037391
Fe	      4.16635      6.16128      2.15850        -0.049483      0.005120     -0.057652
Ni	      2.14931      8.23897      6.40317         0.022119     -0.038583     -0.015278
O	      2.01520      2.06224      2.14062         0.091431      0.017169      0.148648
O	      4.12640      4.20893      1.98664         0.043427     -0.122692      0.167996
O	      4.12434      2.00967      4.17250        -0.049684      0.034859      0.069005
O	      6.33503      4.20986      4.35730        -0.040938     -0.005835     -0.022003
O	      6.32767      2.12462      6.39814        -0.164283      0.089185     -0.017063
O	      8.32084      4.13564      6.28704        -0.014748      0.148030      0.024560
O	      2.05171      4.09875      4.32439         0.064119      0.009090     -0.012276
O	      4.28424      6.31235      4.15204         0.011685     -0.002542      0.105046
O	      4.16023      4.18115      6.30050        -0.094866     -0.013825     -0.063300
O	      6.28437      6.25507      6.24072         0.007828      0.059003     -0.015743
O	      6.23168      4.14232      8.44037         0.007162      0.062652      0.033524
O	      8.43944      6.36922      8.49214        -0.091492     -0.069637      0.000100
O	      2.03975      6.11532      6.31056         0.131175     -0.217773      0.006929
O	      4.26043      8.33956      6.25816         0.199058     -0.090645     -0.013448
O	      4.17420      6.05396      8.56572        -0.012760      0.054277     -0.001806
O	      6.30858      8.24545      8.28078         0.062943      0.026727     -0.310655
O	      6.21782      6.19388     10.68325         0.013717     -0.032412     -0.070917
O	      8.49030      8.35180     10.64987         0.033709      0.006942     -0.055161
