# total energy = -226.00993635 eV
 
CRYSTAL
PRIMVEC
-0.039583 6.326791 6.109725 
6.329914 -0.043345 6.113440 
4.191835 4.192234 -0.000699 
PRIMCOORD
36 1
Li	      8.36855     10.31762     10.27122         0.034926      0.097220     -0.035112
Li	      6.47663      8.38245     10.25657        -0.103161     -0.036282     -0.071544
Li	      4.24127      2.10938      6.11354         0.018743     -0.042979     -0.022935
Li	      6.26933      4.13420      6.10491         0.026348     -0.013919      0.013610
Li	     10.32974      8.38193     10.20074         0.088651      0.030156     -0.032445
Li	      8.35879      6.46257     10.21901        -0.031471     -0.092274     -0.064004
Li	      2.15278      4.25678      6.05443        -0.046094      0.009489      0.011444
Li	      4.11232      6.22036      6.05854        -0.002903      0.036729      0.021079
Li	      8.42129      8.34059      8.21846         0.012051     -0.009468     -0.057267
Ti	      4.28477      8.28318      8.08858         0.264952     -0.145130     -0.133400
Mn	      6.27338      6.28593      4.16549         0.064772      0.014234      0.242933
Cr	      6.30112      6.32893     12.12240        -0.094596     -0.085584     -0.075970
Cr	      8.39157      4.17268      8.12924        -0.152388      0.140458     -0.042872
Cr	      4.19945      4.20725      4.18085         0.004515     -0.051079      0.006770
Cr	      6.33052      6.23742      8.16755         0.073752     -0.040132     -0.010860
Ni	      8.34862      8.37409     12.12234         0.029511      0.045985      0.030629
Ni	      2.10427      6.28484      8.12155         0.056250     -0.102141      0.068553
Ni	      6.23237      2.14734      8.12628        -0.099933      0.098458      0.033116
O	      8.39598      8.39061     10.16790        -0.006900      0.012673     -0.106915
O	      2.12438      2.12175      2.11673         0.088932      0.040287      0.143153
O	      4.15719      4.15402      2.02379        -0.031918     -0.076910      0.077469
O	      4.03664      2.19624      3.98369        -0.020844     -0.019592     -0.026977
O	      6.20248      4.33602      4.03452         0.046676      0.047257      0.059573
O	      6.33471      1.97668      6.14621        -0.033782      0.048624     -0.117770
O	      8.52081      4.11357      6.16393         0.020156      0.049417      0.045860
O	      2.18652      4.04407      4.03152        -0.020909     -0.035195      0.040862
O	      4.33327      6.20571      4.03778         0.041598      0.046602      0.112650
O	      4.19177      4.19508      6.01974        -0.018037     -0.005976     -0.000421
O	      6.28869      6.31935      6.08471        -0.026669     -0.033363     -0.207886
O	      6.40545      4.23477      8.13798         0.070104      0.046554      0.005662
O	      8.33668      6.15805      8.17596        -0.043960     -0.059127     -0.027236
O	      1.96859      6.36205      6.14722         0.046534     -0.092995     -0.118347
O	      4.12371      8.51760      6.21639         0.016873     -0.028727      0.255346
O	      4.22246      6.41440      8.12664         0.016387      0.242163      0.007061
O	      6.15817      8.35508      8.18325        -0.311880     -0.041931     -0.047217
O	      6.26984      6.29387     10.15458         0.023714      0.006498      0.023408
