# total energy = -235.87270057 eV
 
CRYSTAL
PRIMVEC
-0.001288 6.301153 6.179705 
6.317324 0.004541 6.174188 
4.215618 4.200766 -0.001053 
PRIMCOORD
36 1
Li	      4.23788      2.07097      2.14026         0.014644     -0.015131      0.018398
Li	      4.33947      6.31468     10.35011        -0.036348      0.030265      0.017836
Li	      2.19549      2.10469      4.18204         0.009232      0.029227      0.008376
Li	      8.33122      6.32692      6.17216        -0.058238      0.074380      0.047768
Li	      6.35118      4.23672      6.22261         0.028930     -0.034883      0.009147
Li	      6.15306      4.34255     10.22890        -0.022423      0.033141     -0.051250
Li	      8.33520      6.38539     10.17370         0.007907     -0.024112     -0.057282
Li	      8.51349      8.32802      8.26563         0.004266     -0.039365     -0.062367
Li	      6.34010      6.23518      8.30979         0.018573      0.015304     -0.025218
Ti	      2.25264      6.28966      8.33448         0.214332     -0.135943      0.119810
Mn	      8.36929      4.23800      8.25723        -0.007483      0.047272     -0.051304
Mn	      6.26263      8.37852      6.14500         0.005236     -0.028596     -0.003264
Cr	      6.32700      8.35427     10.32169        -0.009532     -0.061212      0.018287
Cr	      6.28220      2.14963      8.23733        -0.030263     -0.008903      0.003583
Cr	      4.20984      4.16640      4.11573        -0.022301      0.004688     -0.032882
Cr	      4.21272      6.33278      6.10125         0.015235     -0.002928     -0.026666
Co	      8.41973      8.39987     12.32459        -0.008559      0.019017     -0.165909
Ni	     10.48740     10.46626     12.29231         0.013443     -0.013945      0.043224
O	      2.04324      1.98140      1.96607         0.043944     -0.082307     -0.062173
O	      4.26009      4.25917      2.06367         0.012129      0.028941      0.112018
O	      4.31701      2.17980      4.16854        -0.044419     -0.027588      0.006190
O	      6.27573      4.16813      4.05564         0.014736      0.002211     -0.144378
O	      6.49243      2.03418      6.18748         0.068147      0.109388     -0.005761
O	      8.45062      4.01291      6.30918        -0.078123      0.067184      0.091445
O	      2.21702      4.17000      4.02479        -0.044656      0.006262     -0.067141
O	      4.23174      6.18501      4.08903         0.014641     -0.007816      0.045029
O	      4.10619      4.31693      6.08709         0.013012     -0.024231      0.037802
O	      6.18626      6.48463      6.19210         0.036706      0.048184     -0.019204
O	      6.37993      4.11257      8.23692        -0.032242     -0.017478     -0.002875
O	      8.54852      6.28705      8.15142         0.013491      0.001529      0.030589
O	      2.12176      6.23942      6.23627         0.057001     -0.032798      0.064519
O	      4.13554      8.36252      6.13241        -0.015705     -0.092229      0.002010
O	      4.08767      6.32827      8.14229        -0.244421     -0.001361      0.061201
O	      6.30221      8.55552      8.27451         0.002416      0.156992      0.050105
O	      6.30578      6.39779     10.30490         0.001800      0.005203     -0.149550
O	      8.32907      8.43601     10.43651         0.044893     -0.028363      0.139886
