# total energy = -236.63869019 eV
 
CRYSTAL
PRIMVEC
0.028039 6.216990 6.293006 
6.254467 0.015790 6.305748 
4.190778 4.173897 -0.010590 
PRIMCOORD
36 1
Li	      6.27818      0.13008      6.37134        -0.101319      0.058708      0.118475
Li	      1.98772      2.06344      0.12588        -0.101108      0.196364      0.156387
Li	      6.22473      4.18389      2.05956        -0.103984      0.002435      0.095581
Li	      4.19740      8.33796      8.32198        -0.095896      0.123461      0.045605
Li	      6.26368      2.06968      4.26317        -0.016095      0.019885      0.097417
Li	      6.33032      2.12575      8.28354         0.017118      0.070668      0.042446
Li	      6.32300      4.05102      6.39863         0.140068     -0.123831      0.149370
Li	      6.28722      4.15680     10.45811         0.019062      0.023328     -0.162439
Li	      8.38733      8.32722      8.39877         0.110218     -0.020909      0.021690
Ti	      8.38151     10.21571     10.49862        -0.021713     -0.237733      0.160869
Mn	      4.24822      4.14145      4.12771        -0.157132     -0.120099     -0.708395
Mn	      4.16686      6.26030      6.35625        -0.019349     -0.159961      0.091150
Cr	      2.07064      2.10316      4.15065        -0.013465     -0.018821     -0.667045
Cr	      4.25817      2.08612      6.32636         0.447698     -0.217682      0.169084
Cr	      8.35183      6.29882     10.48634        -0.059570     -0.039530     -0.428435
Cr	      6.29216      6.25417      8.38811         0.195643     -0.583898      0.321829
Co	      6.19736      8.37027      6.35846         0.331659     -0.288267     -0.656517
Co	      2.10717      4.09385      2.05665        -0.031953      0.215758      0.068011
O	      2.07823      2.11707      2.21339         0.087840      0.302953      0.141204
O	      4.08356      4.13445      2.24361         0.152433     -0.096526      0.076593
O	      4.07860      2.10387      4.31100         0.049112     -0.022706      0.048962
O	      6.42345      4.27451      4.13818         0.095671     -0.024852      0.095961
O	      6.15824      2.11364      6.29891        -0.143138      0.010036     -0.109215
O	      8.43022      4.25853      6.14196        -0.022128      0.038609     -0.360145
O	      2.06051      4.19837      4.28348        -0.133077      0.052087      0.856311
O	      4.17844      6.15455      4.16151        -0.036874      0.057386      0.235189
O	      4.14307      4.19750      6.14319        -0.710358      0.178441      0.417483
O	      6.24706      6.21023      6.28270         0.000962      1.172624      0.052392
O	      6.40977      4.27011      8.38427        -0.105011      0.070931     -0.081990
O	      8.31342      6.25052      8.39188        -0.065754     -0.315835      0.081554
O	      2.18272      6.28494      6.16267        -0.336922     -1.134646      0.314447
O	      4.23392      8.13932      6.30968         0.825979      0.158689      0.071730
O	      4.29769      6.19691      8.54090        -0.066424      0.046325     -0.133079
O	      6.31218      8.24833      8.27856        -0.141991      0.307934     -0.702172
O	      6.29449      6.26212     10.39350        -0.019612      0.081100      0.054559
O	      8.37109      8.34742     10.49547         0.029409      0.217575      0.025130
