# total energy = -232.85275817 eV
 
CRYSTAL
PRIMVEC
0.065111 6.440762 6.259484 
6.242805 0.041291 6.285357 
4.183618 4.333871 0.005268 
PRIMCOORD
36 1
Li	      0.08111      0.08107      0.07456        -0.012554     -0.018908     -0.015038
Li	      2.05990      2.13348      0.13404        -0.025935      0.055814      0.004324
Li	      6.20475      2.22942      4.25467         0.043125      0.018352      0.010618
Li	      4.22964      6.32827      2.06291        -0.049327      0.032246      0.005122
Li	      2.23349      4.24411      2.13779        -0.025499      0.039129     -0.003301
Li	      4.08777      4.30492      4.11949        -0.008584     -0.005914      0.054280
Li	      4.24907      2.13433      6.15922        -0.006703     -0.021834     -0.009036
Li	      2.16749      6.32474      4.27417        -0.023428      0.006095     -0.046549
Li	      2.06557      4.45733      6.19727         0.025811      0.004818      0.027215
Ti	      6.48128      6.48177      8.31748         0.659843      0.067735     -0.007682
Mn	      4.27330      8.60798      4.23507        -0.030150      0.011458     -0.006264
Mn	      4.21245      4.29038      8.33656        -0.052318     -0.085126      0.006486
Cr	      4.14878      2.27013      2.10072         0.064399      0.041697     -0.014146
Cr	      4.15513      0.06326      4.17696         0.050437     -0.057252      0.025313
Cr	      6.31186      4.20492      6.22974        -0.028963     -0.104956      0.036922
Cr	      4.13738      6.51566      6.28558        -0.036116     -0.013711     -0.042982
Cu	      1.94880      0.14789      2.07010         0.011062     -0.021926      0.007844
Ni	      2.10035      2.21833      4.17955        -0.011389      0.003122      0.093131
O	      2.19335      2.24685      2.15023         0.020870      0.045868     -0.121190
O	      4.21570      4.22804      2.09672        -0.026615     -0.074979      0.014575
O	      4.17433      2.07580      4.12115         0.108002      0.004587     -0.008883
O	      6.33227      4.38774      4.21200        -0.016020     -0.030751      0.002126
O	      6.22691      2.39046      6.26502         0.033806      0.051688     -0.001181
O	      8.17374      4.39137      6.14331         0.038800     -0.028472     -0.001183
O	      1.99177      4.27771      4.23030         0.020351      0.098457     -0.002292
O	      4.19905      6.62980      4.30210        -0.071334     -0.027872      0.018347
O	      4.29585      4.45118      6.36934        -0.031269      0.024795     -0.026101
O	      6.20166      6.32885      6.35835         0.019045     -0.000962      0.137498
O	      6.17065      4.41833      8.25390         0.056137      0.050212     -0.072406
O	      8.30094      6.43885      8.33124        -0.562645      0.028046      0.008777
O	      2.18224      6.46912      6.37253        -0.001952      0.013034     -0.067956
O	      4.20730      8.51777      6.36407         0.010512      0.016983      0.068040
O	      4.28646      6.58735      8.36799         0.037148      0.041509      0.000473
O	      6.39909      8.41424      8.36215        -0.111785     -0.214212      0.001592
O	      6.25687      6.33623     10.32316        -0.014008      0.021130     -0.082877
O	      8.50851      8.77810     10.28486        -0.052758      0.030098      0.006386
