# total energy = -239.22494250 eV
 
CRYSTAL
PRIMVEC
0.016508 6.377950 6.285717 
6.246340 0.023189 6.279222 
4.171825 4.255409 0.007616 
PRIMCOORD
36 1
Li	      0.11245      6.33073      6.22008        -0.007314     -0.014010      0.012092
Li	      2.17698      8.29380      6.30914         0.029165     -0.096625     -0.060191
Li	      2.13321      6.43900      8.21777        -0.004203     -0.002425     -0.021439
Li	      8.27869      4.23736      8.37131         0.032493      0.003617     -0.056315
Li	      2.07539      2.20003      4.15765         0.006505      0.023162      0.031247
Li	      0.08671      4.28489      4.20307         0.015071      0.005185      0.033557
Li	      2.01953      6.37364      4.29730        -0.014787      0.018487     -0.037447
Li	      4.05310      6.47239      6.30903         0.049338      0.022379      0.015128
Li	      6.29015      6.34856      8.42379         0.000666     -0.013102     -0.009530
Ti	      4.12627      4.43785      4.11875        -0.040426      0.300300     -0.275233
Mn	      4.10012      8.47712      8.30626         0.012495      0.016288     -0.022028
Mn	      8.27554      6.34950      6.32842         0.054239     -0.050973      0.030401
Cr	      6.27339      8.48712     10.48262         0.004146      0.018009      0.021981
Cr	      6.31885      2.18056      8.33221         0.006748     -0.032594      0.026023
Cr	      6.22226      8.56073      6.30748        -0.034905     -0.003648     -0.010250
Cr	      4.20611      4.27638      8.39424        -0.017803      0.067410      0.094941
Fe	      4.25431      6.33745     10.47465        -0.157999      0.009807      0.010734
Co	      6.25371      4.31011      6.30936         0.006533      0.086213     -0.025586
O	      2.10131      2.15472      2.05343         0.026056     -0.012147     -0.010839
O	      4.15699      4.33979      2.24182         0.058672      0.084792      0.290043
O	      4.21317      2.15260      4.04211         0.006930      0.004971     -0.067991
O	      6.17248      4.15964      4.32299        -0.059559     -0.067129     -0.121258
O	      6.09589      2.14866      6.26121        -0.037335     -0.152293      0.003306
O	      8.27599      4.41415      6.18007        -0.047895      0.001054      0.064541
O	      2.23499      4.24710      4.29465         0.174114      0.051634      0.039612
O	      4.24501      6.28999      4.10855         0.005121     -0.331812     -0.024427
O	      4.13107      4.16942      6.28742        -0.048137      0.022835     -0.016202
O	      6.38540      6.46278      6.30616        -0.093322      0.078854      0.005312
O	      6.21173      4.19324      8.30274        -0.023709     -0.046829      0.151445
O	      8.47549      6.52530      8.41236         0.002192      0.058802     -0.028234
O	      2.09484      6.25060      6.28225         0.013816     -0.041578     -0.013100
O	      4.23597      8.48101      6.40336         0.038001      0.006680      0.110775
O	      4.16706      6.31193      8.47965         0.006705     -0.060563     -0.021429
O	      6.27614      8.51412      8.42557        -0.029446      0.019576     -0.061006
O	      6.19014      6.48696     10.47366         0.075487      0.038686      0.007681
O	      8.27729      8.59075     10.42377        -0.007655     -0.013012     -0.066313
