# total energy = -237.50336215 eV
 
CRYSTAL
PRIMVEC
-0.002491 6.337426 6.335889 
6.193762 -0.011351 6.344392 
4.116432 4.218059 0.005090 
PRIMCOORD
36 1
Li	      4.20261     10.47227      6.43543        -0.008205     -0.008904     -0.009385
Li	      1.97305      0.01323      2.00795        -0.017895      0.038926     -0.020929
Li	      4.12303      2.19028      2.04797         0.006281      0.030048     -0.028455
Li	      2.09261      4.18857      2.22286         0.001934     -0.007407      0.054710
Li	      2.03090      2.22425      4.14692        -0.015868     -0.009039     -0.032118
Li	      8.23587      6.31298      6.38670         0.006679     -0.016742      0.005139
Li	      2.08921      6.18733      4.30783        -0.010144     -0.058344      0.038912
Li	      2.01300      4.31582      6.32270         0.008087      0.007751      0.070723
Li	      8.23448      8.38664      8.45247         0.005827     -0.013221      0.011178
Ti	      4.07394      6.41130     10.41649         0.047118      0.045110     -0.132488
Mn	      4.08214      6.31221      2.16790        -0.025317     -0.016120      0.059232
Mn	      6.18782      4.22370      6.39194        -0.077834      0.043729     -0.017638
Cr	      2.06681      2.11148      0.00960         0.058024     -0.044520      0.000134
Cr	      6.19377      8.44218     10.50016        -0.018652     -0.006101     -0.072802
Cr	      4.05358      4.19569      4.20348         0.010578      0.001884     -0.000453
Cr	      4.09196      6.32004      6.37027         0.010246      0.010284     -0.013242
Fe	      6.36462      6.37460      8.45932        -0.086291     -0.098024      0.030560
Cu	      0.11112      4.18514      4.23826         0.005485     -0.002167     -0.016862
O	      1.90726      2.13490      1.98682        -0.025350      0.011899     -0.017440
O	      4.07857      4.33833      2.21035         0.000725      0.012232      0.005211
O	      4.15948      2.06103      4.19045        -0.005198     -0.092386     -0.018864
O	      6.20404      4.13901      4.13980         0.080624      0.012405     -0.001975
O	      6.21990      2.24055      6.22305         0.004566      0.000380     -0.034888
O	      8.13825      4.17721      6.16290         0.018447      0.003726     -0.028037
O	      2.10824      4.15873      4.33644         0.077559     -0.020235      0.002869
O	      4.14070      6.16222      4.36429        -0.001923     -0.132676      0.021157
O	      4.24052      4.27061      6.27440         0.027545     -0.023815      0.017270
O	      6.14156      6.17202      6.48931         0.024572     -0.039357     -0.017287
O	      6.20492      4.16929      8.58109        -0.001679     -0.002543     -0.113327
O	      8.28726      6.32485      8.48173         0.148252     -0.019255      0.002594
O	      2.11192      6.44638      6.33902         0.002225      0.045534      0.004191
O	      4.06324      8.35371      6.27362        -0.040433     -0.004702      0.112360
O	      4.17128      6.32416      8.50103        -0.001848     -0.001011      0.137759
O	      6.21146      8.32164      8.51752         0.007881      0.088727      0.019011
O	      6.06961      6.44501     10.52135        -0.134073      0.161340     -0.014897
O	      8.22042      8.61208     10.61957        -0.081948      0.102597     -0.001921
