# total energy = -236.27981666 eV
 
CRYSTAL
PRIMVEC
0.042076 6.247360 6.397739 
6.318877 0.011904 6.427983 
4.203777 4.176217 0.016768 
PRIMCOORD
36 1
Li	      0.13002      6.24602      6.47618        -0.000513     -0.018623      0.106206
Li	      6.14901      4.26349      2.14122        -0.031647      0.012838     -0.056680
Li	      4.15539      2.21728      2.22000         0.005732     -0.004653      0.095838
Li	      6.24113      2.11804      4.31990        -0.003990      0.045529     -0.011074
Li	      4.27971      6.12823      2.21006         0.025958     -0.012042      0.000152
Li	      6.31644      6.21490      4.23650         0.061859     -0.003862     -0.027975
Li	      4.31735      4.25409      4.12962         0.121332     -0.013057     -0.021211
Li	      2.14603      6.23124      4.34092        -0.047873      0.014466      0.062333
Li	      4.15990      6.30960      6.35661        -0.069263     -0.027220      0.012070
Ti	      8.34304      8.37210      8.57673        -0.255791      0.232859     -0.056262
Mn	      4.20155      0.05022      4.24024        -0.094762      0.054804      0.006173
Mn	      2.06314      4.25067      6.38035         0.004103      0.006984      0.006121
Cr	      2.14198      8.24683      6.46649        -0.030755      0.019337     -0.026864
Cr	      2.20393      4.13892      2.18948         0.053343      0.018685     -0.018520
Cr	      6.34768      4.19923      6.42234        -0.050785     -0.039293     -0.056206
Cr	      4.25319      8.22947      4.27102         0.087105     -0.089303      0.089119
Fe	      4.31100      2.07545      6.37051         0.032836     -0.019332      0.026074
Ni	      6.34480      6.25818      8.56766        -0.052110      0.067322     -0.030661
O	      2.14249      2.16134      2.02974         0.001229      0.017682     -0.013143
O	      4.12271      4.16401      2.20594        -0.033103      0.019161     -0.016197
O	      4.26155      1.97684      4.41149        -0.004616     -0.009423     -0.096000
O	      6.46299      4.20551      4.44362         0.012047     -0.014150      0.034373
O	      6.34046      2.17997      6.42244         0.094382      0.012324     -0.024763
O	      8.37774      4.17258      6.54776        -0.001417     -0.075043      0.068183
O	      1.94279      4.20548      4.19008        -0.094894     -0.000374     -0.037424
O	      4.20529      6.42432      4.27731        -0.008103      0.096137     -0.064058
O	      4.32330      4.10615      6.53122         0.056631      0.053296      0.092679
O	      6.47187      6.22469      6.49678        -0.050778     -0.048247     -0.076156
O	      6.32726      4.17457      8.56033         0.015831     -0.096333      0.014704
O	      8.43862      6.30182      8.51042         0.086733     -0.007607      0.016333
O	      2.11068      6.31526      6.37535        -0.036466      0.091527      0.024436
O	      4.14788      8.32508      6.23117        -0.022004     -0.029463     -0.082145
O	      4.27579      6.07083      8.51013        -0.089830     -0.236022     -0.016368
O	      6.48677      8.32154      8.57617         0.247858      0.057731      0.070756
O	      6.18830      6.10923     10.61335         0.048527     -0.038480      0.033705
O	      8.53655      8.40047     10.64236         0.023192     -0.038155     -0.027547
