# total energy = -240.23634707 eV
 
CRYSTAL
PRIMVEC
0.010561 6.273745 6.281813 
6.371922 0.009028 6.283611 
4.278093 4.213303 -0.024297 
PRIMCOORD
36 1
Li	      6.43309      4.26720      2.16877        -0.015026      0.005301     -0.019610
Li	      4.19131      1.94841      2.24561        -0.057666     -0.063647      0.022498
Li	      4.13994      0.08172      4.10889        -0.006569      0.021756      0.001858
Li	      2.25519      4.14958      2.04149         0.031841      0.002024      0.026341
Li	      6.46567      6.14412      4.16116        -0.001510      0.018711     -0.013242
Li	      4.42916      4.14237      4.13028        -0.026535      0.039308     -0.062712
Li	      6.39054      4.34223      6.08481         0.035902      0.027446      0.008167
Li	      4.37347      6.23255      6.35172         0.011206     -0.031542      0.001526
Li	      6.26803      6.33010      8.28547        -0.029171     -0.053090      0.009794
Ti	      0.08125      4.15647      4.14716         0.259297     -0.102720     -0.070927
Mn	      4.25090      4.19531      0.05101         0.026251     -0.003290      0.011136
Mn	      2.17665      6.24074      4.11055         0.002191     -0.082763     -0.005106
Cr	      6.32787      2.21349      4.14193        -0.003672     -0.045417     -0.034033
Cr	      6.41541      2.11810      8.35529         0.096134     -0.002449     -0.007302
Cr	      8.49241      6.31646      6.22916        -0.018688     -0.016845     -0.036473
Cr	      6.36239      8.33283      6.33704        -0.020379      0.029540     -0.009476
Fe	      2.15905      2.14361      0.06275        -0.013200     -0.056074     -0.113006
Fe	      4.21561      4.37027      8.33520         0.011005     -0.170009      0.045782
O	      2.06163      2.13554      1.95193        -0.052927      0.012757      0.195289
O	      4.25666      4.35181      1.95772         0.019709      0.016859      0.004839
O	      4.37268      2.11089      4.25809        -0.016744      0.011996      0.040849
O	      6.38376      4.11997      4.16311         0.042213     -0.002663     -0.007817
O	      6.40295      2.20655      6.25529        -0.075287      0.035742      0.019242
O	      8.64866      4.22628      6.29615        -0.000875      0.013736     -0.034476
O	      1.96395      4.14866      4.31721        -0.260566     -0.084296     -0.059537
O	      4.29535      6.41009      4.04864         0.032439      0.139320      0.048178
O	      4.08604      4.13549      6.32846         0.048352      0.011508     -0.050147
O	      6.51934      6.36012      6.27100        -0.015799     -0.011908      0.002256
O	      6.31144      4.18537      8.53243         0.056539     -0.003722      0.124566
O	      8.67728      6.40831      8.26533        -0.044666      0.021780     -0.068973
O	      1.96531      6.23414      6.28966         0.023417      0.036082      0.070546
O	      4.23103      8.27443      6.16674         0.037090      0.007804     -0.050139
O	      4.28773      6.21482      8.34059        -0.011197      0.168347      0.027055
O	      6.48764      8.34381      8.39299        -0.093779     -0.014550     -0.002684
O	      6.36084      6.20444     10.60662        -0.010894      0.022395     -0.008229
O	      8.51364      8.40046     10.52521         0.041558      0.102575     -0.006032
