# total energy = -241.25318361 eV
 
CRYSTAL
PRIMVEC
-0.019361 6.384731 6.334695 
6.185376 0.000050 6.315641 
4.126782 4.247303 -0.003575 
PRIMCOORD
36 1
Li	      4.21497      8.39227      8.39687        -0.028449      0.062819     -0.025183
Li	      4.19019      6.38136     10.43764         0.002964      0.034041     -0.019124
Li	      6.19507      8.41787     10.40858        -0.009877     -0.036165      0.004995
Li	      6.20472      6.35182      4.34139        -0.039997      0.007871     -0.003370
Li	      6.20839      4.34196      6.37186        -0.018200      0.070488      0.062012
Li	      6.10044      4.36336     10.52091         0.012018      0.026276      0.015917
Li	      6.13655      8.45173      6.47204        -0.021113      0.026122     -0.011151
Li	      8.16355      8.59399      8.51807         0.058844     -0.000403      0.044658
Li	      6.08924      6.57482      8.47811        -0.021684      0.061934      0.011712
Ti	      4.20117      4.12878      4.32331         0.145626     -0.119655      0.054014
Mn	      8.18716      8.56706     12.53567         0.040027      0.042239     -0.014950
Mn	      0.01950      2.17393      2.15081         0.013958     -0.100117     -0.021526
Mn	      4.20561      6.41072      6.36555        -0.039099      0.076352     -0.020406
Cr	      6.20423     10.53914      8.41445        -0.079225      0.043065     -0.004163
Cr	      2.04162      4.23425      2.11430         0.059659     -0.048859     -0.005170
Cr	      8.20162      6.36992      6.31758        -0.027815     -0.086185      0.026886
Cr	      8.17722      6.37146     10.56044         0.070405     -0.024781     -0.017654
Co	      6.14018      6.35913     12.54937         0.009089     -0.095675     -0.075155
O	      1.99120      2.16557      1.94502        -0.023173     -0.004308     -0.019293
O	      4.12987      4.38962      2.15528        -0.030243     -0.013188      0.055578
O	      4.08345      2.24107      4.31360        -0.003163      0.152000      0.014298
O	      6.08157      4.30786      4.05552        -0.218424     -0.040387      0.074300
O	      6.16745      1.97348      6.30233         0.022602      0.092684      0.032627
O	      8.21231      4.36428      6.41405        -0.205349      0.078213      0.011041
O	      2.18532      4.32728      4.09994         0.028802     -0.021242     -0.017555
O	      4.06990      6.26495      4.35084         0.035684     -0.020940      0.049540
O	      4.17999      4.15188      6.20665         0.027654     -0.097559     -0.134728
O	      6.18617      6.40397      6.37791         0.008988     -0.016792     -0.007159
O	      6.26524      4.04801      8.47311        -0.048282      0.031332     -0.058846
O	      8.32763      6.28760      8.45461        -0.039055     -0.026091     -0.038080
O	      2.11555      6.31989      6.30285         0.209000      0.035055      0.038146
O	      3.94372      8.63691      6.30809         0.036090     -0.101027      0.079264
O	      4.03910      6.38519      8.31737         0.094485      0.033634     -0.016383
O	      6.15309      8.63819      8.42521         0.014006     -0.049242     -0.002047
O	      6.23952      6.34949     10.54093        -0.059478      0.022728     -0.017463
O	      8.20853      8.37653     10.63936         0.022727      0.005764     -0.045584
