# total energy = -242.13686592 eV
 
CRYSTAL
PRIMVEC
-0.001074 6.414748 6.257812 
6.273263 0.004653 6.252326 
4.184004 4.274822 0.001061 
PRIMCOORD
36 1
Li	      4.29306      6.38080     10.46098         0.017601     -0.051783     -0.013705
Li	      6.27457      8.47024     10.42558         0.020041     -0.000316      0.019273
Li	      8.21819      4.34482      8.46608        -0.022750      0.028414     -0.036635
Li	      2.07043      2.27775      4.24506         0.003338     -0.006670     -0.005764
Li	      6.23037      4.33211      6.27068        -0.004425     -0.013683      0.004284
Li	      6.42308      4.38264     10.37295         0.022494      0.026033     -0.011828
Li	      2.02527      6.29146      4.13689         0.010496      0.000136     -0.021736
Li	      6.26521      8.42774      6.12747         0.001662     -0.061100      0.031759
Li	      6.34038      6.33187      8.36744         0.016703     -0.072959      0.002155
Ti	      6.31984      4.25022      2.23409         0.007065     -0.035105      0.505293
Mn	      6.29736      6.39540     12.37698        -0.012732      0.044496      0.037648
Mn	      8.33897      8.60801     12.37793        -0.047452      0.096289     -0.085650
Mn	      8.25450      6.34666      6.20478         0.019114     -0.047861      0.022878
Cr	      4.19936      2.12746      2.12088         0.004024      0.029715      0.015078
Cr	      6.27159      2.21268      8.39413        -0.057823      0.060134     -0.016208
Cr	      4.08604      4.27647      4.20678         0.004680     -0.001261      0.061692
Cr	      4.24309      6.42285      6.18523         0.044063     -0.049088     -0.052062
Fe	      8.42002      8.48306      8.47356        -0.036954     -0.001533     -0.272063
O	      2.10917      2.01162      2.05016         0.036608     -0.086788      0.073486
O	      4.27991      4.24034      2.03674         0.088875     -0.004085      0.022738
O	      4.18009      2.24623      4.09603         0.025088      0.036958     -0.121179
O	      6.20110      4.29388      4.04674        -0.001650     -0.015224     -0.473090
O	      6.26497      2.14100      6.39738         0.079933      0.012805     -0.006050
O	      8.47448      4.14632      6.23104         0.066402     -0.077679     -0.012387
O	      2.17565      4.27689      4.14196        -0.015898     -0.013774      0.017552
O	      4.18770      6.29026      4.16700        -0.016628     -0.037124      0.038457
O	      4.14968      4.38376      6.23710        -0.016102      0.081513      0.020006
O	      6.19990      6.38381      6.30604        -0.152021      0.014871     -0.022051
O	      6.20168      4.17371      8.37026         0.064794     -0.034720     -0.011587
O	      8.44810      6.51034      8.32967         0.016892     -0.069898      0.023996
O	      2.07739      6.60720      6.29209         0.023974      0.017016      0.043334
O	      4.18119      8.47063      6.35597        -0.015499     -0.045491      0.033754
O	      4.10597      6.47125      8.27051        -0.129824      0.056840      0.008000
O	      6.25200      8.72601      8.30828        -0.031868      0.179606      0.000749
O	      6.28633      6.42493     10.54617         0.006867      0.006405     -0.062769
O	      8.31829      8.62225     10.33289        -0.019088      0.034909      0.242635
