# total energy = -245.24160936 eV
 
CRYSTAL
PRIMVEC
-0.002349 6.497937 6.199199 
6.320511 -0.011466 6.208103 
4.209457 4.333760 -0.003168 
PRIMCOORD
36 1
Li	      6.29647      6.43506     12.28461        -0.018549      0.027416     -0.044025
Li	      8.52549      8.69417     12.27897        -0.010187      0.027527     -0.019864
Li	      8.45550     10.67521     10.43660         0.038988     -0.015145      0.038479
Li	      6.21851      6.47431      4.19226         0.000759     -0.000235     -0.009542
Li	      6.33287      4.31454      6.22083        -0.013847     -0.041763      0.046449
Li	     10.33236      8.61902     10.42042         0.010585      0.006652     -0.000280
Li	      8.44417      6.64639     10.40241        -0.009066      0.045521      0.026775
Li	      4.20786      6.57358      6.03623         0.016526      0.010313     -0.029943
Li	      8.53086      8.56938      8.42454         0.030187     -0.022918      0.017256
Ti	      2.29030      6.55484      8.18854         0.251717      0.078727     -0.264042
Mn	      6.27811      2.22436      8.29795        -0.005581      0.040210     -0.052899
Mn	      8.38197      4.36888      8.32373        -0.078921      0.024102     -0.065657
Mn	      8.39119      6.47678      6.18103         0.133035     -0.065392      0.039798
Mn	      6.32751      6.45435      8.34058        -0.032667     -0.017563      0.201108
Cr	      4.19430      8.69357      8.20525         0.030473     -0.024934     -0.046577
Cr	      6.38101      8.65290     10.36505         0.104712     -0.084652      0.047145
Cr	      4.23491      4.33445      4.13534        -0.012618      0.029370      0.062156
Cr	      2.08185      4.31329      6.13557        -0.026432      0.067997     -0.004346
O	      2.16501      1.98789      1.97558         0.056091     -0.203495      0.028441
O	      4.16302      4.24303      2.09113        -0.037243     -0.086883     -0.011691
O	      4.30286      2.26753      4.01675        -0.093681      0.021772     -0.047600
O	      6.27234      4.22887      3.98077         0.000074      0.054885     -0.091693
O	      6.14104      2.17847      6.15755         0.023069      0.010248     -0.042415
O	      8.38678      4.49524      6.38689        -0.017884      0.009358     -0.003143
O	      2.22735      4.22018      4.10310        -0.055186     -0.022939      0.025240
O	      4.24752      6.31246      4.11286         0.001297     -0.069141      0.091360
O	      4.12221      4.15829      6.12055         0.043264      0.022456      0.012726
O	      6.40388      6.58624      6.33816        -0.079831      0.022530     -0.114116
O	      6.43263      4.33622      8.34711         0.027196      0.028377     -0.017253
O	      8.35900      6.53350      8.36112        -0.075637      0.010612      0.005974
O	      2.10744      6.33214      6.31332         0.057869     -0.009106      0.291700
O	      4.31001      8.66279      6.22316        -0.044202     -0.016984      0.029072
O	      4.17812      6.61811      8.24301        -0.253117      0.042008     -0.028343
O	      6.23706      8.79831      8.22284         0.012803      0.066416      0.005244
O	      6.27129      6.65631     10.24366         0.018387      0.027958     -0.019623
O	      8.32352      8.69978     10.38727         0.007617      0.006692     -0.055873
