# total energy = -224.83963524 eV
 
CRYSTAL
PRIMVEC
0.036305 6.247238 6.108987 
6.160273 0.056960 6.087805 
4.145003 4.189095 0.000170 
PRIMCOORD
36 1
Li	     10.23967      4.25771      6.13324        -0.036245     -0.000170      0.090553
Li	      2.08878      6.26658      8.10754        -0.014251      0.036149      0.017722
Li	      4.14116      2.12320      2.04186         0.045361     -0.013284      0.030765
Li	      8.28435      4.22085      4.13205         0.037859     -0.032812     -0.057101
Li	      6.24813      2.18703      8.02330         0.026095     -0.034625      0.026754
Li	      8.17660      4.16913      8.02090        -0.041128     -0.002908      0.068412
Li	      8.29411      6.19361      6.12413         0.003454     -0.050872      0.071423
Li	      6.19461      8.40332      6.20920        -0.025164      0.035959     -0.026690
Li	      6.21319      6.30880      8.12290        -0.007394      0.008881     -0.040471
Ti	      4.15504      6.39823      6.21079         0.080677     -0.012402     -0.026737
Mn	      2.10522      2.05982      4.02350         0.008570      0.093611     -0.066671
V	      4.13466      4.14618      3.91525        -0.178875      0.238117      0.593186
V	      8.19853      6.29833     10.08460         0.495578     -0.146181      0.078174
Fe	      8.22664      8.38461      8.08062         0.113061     -0.114279     -0.111086
Co	      6.19052      8.34955     10.14983        -0.029096     -0.173906     -0.016458
Co	      6.18781      4.20052      6.11240        -0.061053      0.084194      0.021002
Co	      6.21154      4.25152     10.07734         0.058218     -0.093517      0.000947
Cu	      8.19415      2.24642      6.18651         0.180284     -0.294547      0.040816
O	      2.08711      2.07456      2.20572         0.075921      0.018264     -0.205034
O	      4.17212      4.21271      2.20169        -0.035155     -0.013004     -1.069273
O	      4.07903      2.25896      4.11174         0.250066     -0.633511      0.043251
O	      6.08075      4.17665      4.18642         0.440201     -0.041508     -0.211123
O	      6.24131      2.29482      6.05854        -0.348871     -0.269093      0.211631
O	      8.09272      4.17002      6.09429         0.290798      0.419335     -0.061796
O	      2.16233      4.27597      4.12117        -0.431874     -0.230937      0.107259
O	      4.12835      6.18724      4.12919         0.046981      0.301763     -0.112950
O	      4.21413      4.28756      6.05038        -0.182326     -0.169813     -0.133647
O	      6.10485      6.18384      5.99404         0.272790      0.171000      0.372550
O	      6.07422      4.22878      8.04193         0.428510      0.011945      0.039965
O	      8.28592      6.33136      8.28341         0.005798     -0.222567     -0.687595
O	      2.21448      6.34874      5.96167        -0.381019     -0.222012      0.366136
O	      4.13663      8.25078      6.06872         0.218799      0.527212      0.139198
O	      4.14464      6.22458      8.02176         0.003887      0.308918      0.473549
O	      6.32202      8.38186      8.13197        -0.629431      0.000373     -0.162093
O	      6.32970      6.27485     10.23386        -0.752913      0.054083     -0.005724
O	      8.31043      8.26880     10.04736         0.071887      0.462145      0.201156
