# total energy = -89.64890790 eV
 
CRYSTAL
PRIMVEC
-1.975932 4.053307 -1.975626 
1.920038 3.997158 1.919095 
1.955836 0.028748 -5.850175 
PRIMCOORD
16 1
Li	      0.02136      3.86782     -3.79555        -0.365783     -0.011819     -0.867018
Li	      1.81244      5.78364     -3.74997         0.184687      0.716921     -0.831135
Li	      1.80013      3.86938     -5.56974         0.064242      0.106527     -0.829076
Li	     -0.00369      1.94083     -1.88603        -0.698655     -0.097348     -0.074530
Mn	      0.00079      0.00088     -0.00102        -1.366322     -4.825511      1.960786
Mn	     -0.00827      5.78014     -1.93342        -1.270135      4.029325      0.071674
Ni	      1.82497      3.84680     -1.87788         1.825763     -0.201909      1.381881
Ni	      1.81903      1.93532     -3.70262         0.868185     -2.379372     -1.335534
O	     -0.02487      3.93984     -5.71936        -0.374668      0.238365     -1.692779
O	      1.74272      5.71786     -1.88905         2.330208      2.046325      0.075089
O	      1.94774      3.80243     -3.74487         0.564888      1.844165     -1.674300
O	      1.82802      3.67597      0.03324         0.486350      0.562009      1.455402
O	      1.83285      1.97599     -1.79648         0.725805     -2.081438      0.022589
O	     -0.03487      5.91679     -0.12601        -0.240387      1.185127      2.017130
O	     -0.08706      4.01313     -1.88634        -1.371115     -2.191730     -0.418721
O	      0.07097      1.77307     -0.01622        -1.363063      1.060363      0.738541
