# total energy = -224.58098365 eV
 
CRYSTAL
PRIMVEC
-0.000973 6.234905 6.362689 
6.311430 0.011331 6.349688 
4.209232 4.149350 0.006336 
PRIMCOORD
36 1
Li	      8.40569      8.32573     12.68360         0.013443     -0.015881     -0.016781
Li	     10.48512      6.29587      8.56463        -0.006481     -0.007865      0.028522
Li	      8.29696      4.26273      8.48144        -0.037720      0.021915      0.071125
Li	      8.29082      6.24056      6.43045        -0.087709      0.021320     -0.009938
Li	      6.31624      4.22471      6.43195        -0.009336      0.025826     -0.017118
Li	      6.34384      4.14157     10.52890         0.114297      0.044958     -0.028225
Li	      2.13659      6.18771      4.20559        -0.119300     -0.013688      0.023028
Li	      2.16315      4.11771      6.30404         0.015210     -0.025228     -0.104910
Li	      6.38324      6.17169      8.37453        -0.032588      0.019658     -0.068035
Ti	      4.17823      8.31821      8.40861        -0.048256      0.281698     -0.221116
Mn	      2.09915      6.24024      8.45765         0.029062      0.022564     -0.045046
V	      6.29889      0.14811      6.34055         0.035958     -0.223444      0.007385
V	      4.36363      4.01738      8.40364         0.011085      0.181299      0.010718
Fe	      8.44921     10.33236     10.68825        -0.036915      0.020929     -0.000480
Co	      6.24636      6.37614      4.34228         0.084101     -1.336612     -0.016281
Co	      4.17434      4.16861      4.31612        -0.145994      0.060608      0.049388
Co	      4.24125      6.23658      6.31025        -0.325976     -0.329276     -0.352144
Ni	      6.34384      8.29739     10.61136         0.095586     -0.017435      0.053366
O	      2.24050      1.94926      2.16533        -0.052827      0.261071      0.378057
O	      4.13093      4.02629      2.04447        -0.001575     -0.048838     -0.170384
O	      4.25426      2.06744      4.11092        -0.500708     -0.069788      0.023486
O	      6.35924      4.18338      4.12102        -0.005982      0.361151      0.120900
O	      6.33718      1.92055      6.35993        -0.009820      0.320509      0.072848
O	      8.52772      4.13541      6.26881        -0.047050      0.000501      0.086790
O	      2.14383      4.06170      4.19141        -0.106661     -0.096805      0.219697
O	      4.24993      6.17089      4.26839         0.795576      0.452696      0.237691
O	      4.20930      4.16283      6.46285         0.094154      0.154293      0.322425
O	      6.27679      6.21145      6.26357         0.329345      0.447831     -1.015208
O	      6.16284      4.17757      8.46152         0.038484     -0.021342     -0.005019
O	      8.33891      6.39270      8.48775         0.005378     -0.254652      0.006826
O	      1.99393      6.24108      6.50173        -0.150907      0.046604      0.070202
O	      4.20873      8.39785      6.50793        -0.015668     -0.277983      0.379419
O	      4.30290      6.29464      8.51809        -0.020818      0.152443     -0.125051
O	      6.28393      8.43131      8.52025        -0.056382     -0.018096      0.020070
O	      6.25313      6.23398     10.75023         0.059543     -0.043802     -0.021103
O	      8.38009      8.37672     10.47033         0.097451     -0.097137      0.034897
