# total energy = -227.28268052 eV
 
CRYSTAL
PRIMVEC
0.036419 6.264959 6.246015 
6.477019 0.017474 6.265536 
4.314007 4.185892 0.015399 
PRIMCOORD
36 1
Li	      8.54924      2.15411      6.27148        -0.007341      0.071511     -0.001448
Li	      2.18813      6.27477      8.28733        -0.007979     -0.000449     -0.036412
Li	      6.58742      8.34520     10.43288         0.092828     -0.041083     -0.042537
Li	      6.37016      2.16360      8.28275         0.010201     -0.029737     -0.004053
Li	      8.69800      6.31882      6.41937        -0.002309     -0.031472     -0.033157
Li	      6.45132      4.10387      6.41281         0.012741     -0.031026      0.006001
Li	      4.34589      6.19999      6.28699        -0.001474     -0.010211      0.035551
Li	      4.42430      4.10761      8.28315         0.007380      0.057251     -0.014915
Li	      6.58584      6.23735      8.32119         0.062605     -0.012701     -0.002602
Ti	      4.36108      8.30921      8.25915        -0.053558     -0.065733     -0.075846
Mn	      8.68913     10.44441     10.47190         0.072607      0.041626      0.082264
V	      6.43527      6.19648      4.18859        -0.038627      0.335997      0.081049
V	      6.58586      8.36360      6.35589        -0.006683      0.091947     -0.073343
Fe	      6.43085      4.18064     10.28827         0.158190      0.007274      0.173546
Co	      4.33720      4.19394      4.19746        -0.054356      0.025919     -0.016194
Co	      6.46069      0.21899      6.26007        -0.022113      0.019068     -0.040869
Co	      8.57726      4.27388      8.27471         0.198163     -0.105930      0.059368
Co	      8.63180      6.34538     10.35000        -0.038313      0.022403     -0.008838
O	      2.30404      2.13508      2.19181        -0.073965      0.207718     -0.105911
O	      4.29063      4.06294      2.10713        -0.310773      0.090939     -0.042702
O	      4.21433      2.05470      4.09766        -0.128918      0.050007      0.016992
O	      6.43403      4.38667      4.23602        -0.061985     -0.181446     -0.043343
O	      6.52795      1.99682      6.25370         0.015262      0.022982     -0.017521
O	      8.73452      4.20044      6.17088         0.048484     -0.011686      0.096660
O	      2.14915      4.04819      4.23765        -0.013994     -0.078520      0.048757
O	      4.43559      6.33745      4.19296         0.119207     -0.063891      0.036847
O	      4.18011      4.20982      6.23170         0.043742     -0.039101      0.085453
O	      6.46130      6.48474      6.16653        -0.078122     -0.153879     -0.063759
O	      6.53431      4.20290      8.38225         0.388184      0.097566     -0.182412
O	      8.68206      6.25031      8.40483        -0.088227     -0.493117     -0.036657
O	      2.11814      6.05937      6.17213        -0.045476      0.078840      0.051544
O	      4.40520      8.37814      6.34774         0.027948     -0.007856      0.045061
O	      4.32512      6.41051      8.46611        -0.075633      0.102930     -0.108820
O	      6.37016      8.37328      8.27949        -0.116637      0.024952      0.121634
O	      6.56353      6.17705     10.49594         0.026548      0.113263      0.038182
O	      8.76488      8.45397     10.44150        -0.057607     -0.104351     -0.027571
