# total energy = -224.05277316 eV
 
CRYSTAL
PRIMVEC
0.045418 6.270208 6.310236 
6.239246 0.032654 6.322704 
4.160386 4.189334 0.020811 
PRIMCOORD
36 1
Li	     10.43663     10.48386     12.64231        -0.044523     -0.015641     -0.036692
Li	      8.33289      4.22626      8.44513         0.045519     -0.041174      0.001424
Li	      2.11728      2.17675      4.21950         0.007608      0.127964     -0.028330
Li	      8.31941      6.30065      6.35130         0.008523     -0.039794      0.047822
Li	      0.07711      4.19899      4.19062         0.063216      0.037214     -0.033704
Li	      6.28547      8.36123      6.37014         0.034225      0.001765      0.044185
Li	      4.18476      6.27858      6.37998        -0.015900      0.019772      0.060043
Li	      4.15164      4.23394      8.36848         0.025904      0.024743     -0.077848
Li	      6.26375      6.31156      8.43042        -0.029671     -0.005012      0.013644
Ti	     10.33854      6.38699      8.46981        -0.009700      0.162201      0.075284
Mn	      4.15575      4.16284      4.26415        -0.098259     -0.015762     -0.007060
V	      2.25755      8.35200      6.31287         0.008293      0.062408      0.112391
V	      6.23323      4.37805      6.35311         0.106983     -0.413944      0.121045
Fe	      6.23713      8.31801     10.43809         0.125908     -0.018330      0.223309
Fe	      2.05855      6.20446      4.24064         0.054117      0.142924     -0.187957
Co	      2.15376      6.26380      8.36918         0.155189     -0.372123     -0.085968
Cu	      4.24270      8.32174      8.41845         0.105138      0.373650     -0.144370
Ni	      4.22302      6.27951     10.49543         0.059419     -0.087832     -0.015747
O	      1.97585      2.00820      1.99604        -0.245803      0.617931      0.125155
O	      4.24981      4.19338      2.24581        -0.563249      0.276359      0.148473
O	      4.24364      2.02859      4.28207        -0.318826      0.038220      0.124936
O	      6.18563      4.11584      4.37916        -0.080653      0.040995     -0.288789
O	      6.34683      2.20196      6.40775        -0.210150     -0.165594     -0.080375
O	      8.22875      4.09851      6.29145         0.035407      0.232069      0.024649
O	      2.20662      4.25777      4.26738        -0.063333     -0.295579      0.002361
O	      4.15412      6.35242      4.05911         0.104871      0.050909      0.062055
O	      4.29101      4.19543      6.20037        -0.188419     -0.020001      0.140748
O	      6.27442      6.11393      6.37314         0.012891      0.628239     -0.006345
O	      6.24897      4.09562      8.31858        -0.050222      0.087574      0.116231
O	      8.46504      6.28073      8.48750        -0.091562     -0.038802     -0.071323
O	      2.10733      6.40519      6.21265        -0.052981     -0.186292      0.165302
O	      4.02988      8.40781      6.27938         0.294553      0.003029      0.023004
O	      4.09728      6.38484      8.46956         0.518493     -0.418441      0.068244
O	      6.31256      8.47173      8.49589         0.068630     -0.498427     -0.317092
O	      6.31829      6.35123     10.50294         0.133538     -0.268489     -0.038502
O	      8.26175      8.37306     10.65943         0.094826     -0.026729     -0.280203
