# total energy = -223.38213696 eV
 
CRYSTAL
PRIMVEC
-0.006275 6.074865 6.484074 
6.200187 0.011473 6.466266 
4.161100 4.065781 -0.019520 
PRIMCOORD
36 1
Li	      4.16037     10.02643      6.37861         0.042559      0.084523     -0.003637
Li	      2.23004      8.12382      6.46296        -0.030715     -0.042975     -0.034084
Li	      4.16012      8.06924      8.47402        -0.024108     -0.028690      0.023178
Li	      6.22924      8.08377     10.79154         0.036638     -0.046323      0.056466
Li	      6.17728      2.06429      8.61216        -0.027746      0.017387      0.028403
Li	      8.24003      6.14603      6.45412         0.004010      0.030386     -0.003587
Li	      4.14334      8.17086      4.55112         0.019936     -0.082618      0.033518
Li	      6.13017      8.05578      6.52264         0.068102     -0.017454      0.020803
Li	      6.22513      6.15275      8.63904        -0.042925      0.005375      0.084734
Ti	      2.00828      6.00427      8.48484        -0.048789     -0.049395     -0.360501
Mn	      4.24723      6.06564     10.87830        -0.070292      0.112598     -0.085438
V	      6.19143      6.11180      4.29068        -0.090949      0.120584     -0.117081
V	      6.18884      3.93809      6.47633        -0.139910     -0.080517     -0.213117
Fe	      8.28330      4.09486      8.52542        -0.039635      0.070092      0.141158
Fe	      8.22902      6.19025     10.75340         0.284756     -0.024940      0.056853
Co	      4.14898      4.04697      4.27218        -0.146671     -0.480489     -0.017198
Cu	      4.15992      6.15280      6.47722        -0.070511     -0.022232     -0.054183
Cu	      8.30671      8.10968      8.65008         0.094179     -0.122448     -0.096053
O	      4.18748      8.05008      6.51207         0.050034     -0.019013      0.117475
O	      2.05207      2.03399      2.27467        -0.004697     -0.148608     -0.043836
O	      4.20698      4.03202      2.27210         0.252150     -0.060914     -0.424156
O	      3.98718      2.00570      4.34650         0.084043     -0.578629      0.010080
O	      6.09643      4.05321      4.31354         0.697349      0.033398     -0.028031
O	      6.14921      2.18815      6.43859         0.008560      0.103107      0.010713
O	      8.21782      4.09208      6.51485        -0.078949      0.049284      0.148252
O	      2.20372      4.10744      4.17726        -0.645365     -0.079753     -0.121239
O	      4.16554      5.98429      4.20364        -0.041922      1.230708     -0.031811
O	      4.18929      4.13979      6.22399         0.099271     -0.112345      0.474009
O	      6.18442      5.99198      6.29969         0.009587     -0.069671      0.039434
O	      6.19959      4.11143      8.39909         0.180101      0.051472      0.188123
O	      8.29007      6.09990      8.71232        -0.061381     -0.034310     -0.179781
O	      2.07336      6.10380      6.61589         0.031897     -0.051566      0.300211
O	      3.99954      6.02201      8.84555        -0.037259      0.190831      0.019386
O	      6.28512      8.20467      8.60512        -0.066530      0.163577      0.042654
O	      6.32384      6.10247     10.84135        -0.274574     -0.009861      0.003658
O	      8.34196      8.13105     10.88681        -0.020241     -0.100574      0.014623
