# total energy = -224.02609212 eV
 
CRYSTAL
PRIMVEC
0.014657 6.173896 6.373521 
6.316184 -0.012575 6.400695 
4.204198 4.127623 -0.001712 
PRIMCOORD
36 1
Li	      4.22946      8.22194      8.46675         0.031921     -0.050571     -0.040406
Li	      6.35711      8.26420     10.61908        -0.047524      0.012017     -0.097254
Li	      6.30314      6.16690      4.32424         0.013829     -0.020810      0.001215
Li	      4.24914      4.10817      4.26755         0.028649     -0.031489     -0.008643
Li	      6.25728      4.16359      6.31947        -0.014229      0.010311      0.036879
Li	      4.22422      8.25826      4.33354         0.014009     -0.033640      0.044245
Li	      2.06690      4.12515      6.25798        -0.030159     -0.009412     -0.049584
Li	      4.22330      6.14954      6.38730         0.002509     -0.018576      0.078021
Li	      4.26263      4.14366      8.51375         0.010911      0.040231     -0.044007
Ti	      4.16633      2.20644      6.26553        -0.111694      0.413322     -0.369714
Mn	      4.23898     10.24364      6.36810         0.087496     -0.113103      0.010513
V	      4.21951      6.24353      2.25245         0.121473     -0.008029      0.115550
V	      6.28138      6.31227      8.51410        -0.077371      0.142781     -0.035099
Fe	      8.34365     10.18269     10.61018         0.090284      0.183528     -0.109085
Fe	      2.12941      4.08526      2.29976        -0.018625     -0.036581     -0.068156
Co	      6.35100     10.21969      8.52695        -0.032904      0.082247      0.094710
Ni	      2.15668      8.22862      6.34524        -0.055061     -0.033194      0.086720
Ni	      8.38638      6.18439     10.68532         0.016200     -0.005487     -0.005018
O	      1.96483      2.08805      2.07299        -0.021026     -0.141225      0.148727
O	      4.15802      4.23148      2.17310         0.066281     -0.017169     -0.005501
O	      4.21198      1.97033      4.41783         0.020011      0.046714      0.364810
O	      6.40425      4.11144      4.17144        -0.149499     -0.040822     -0.502980
O	      6.21611      1.95200      6.58037        -0.061797     -0.020892     -0.007600
O	      8.54172      4.12751      6.36632        -0.037407      0.134323      0.076653
O	      2.11619      4.15754      4.17720        -0.012185     -0.084743      0.152198
O	      4.15197      6.22567      4.03752         0.061087     -0.006630     -0.029191
O	      4.25370      4.01481      6.35337        -0.018499     -0.397289     -0.033195
O	      6.44488      6.14759      6.51961         0.158589      0.019922     -0.092551
O	      6.42690      4.11165      8.46138        -0.018015     -0.017783      0.002731
O	      8.41562      6.13944      8.47308         0.062642      0.017431     -0.103348
O	      2.01168      6.18668      6.39832         0.045254     -0.106975      0.519697
O	      4.19623      8.35247      6.40338         0.094664      0.002321     -0.000223
O	      4.34327      6.14281      8.56580        -0.065537      0.033796     -0.122099
O	      6.35394      8.08675      8.49745        -0.037697      0.057368      0.030518
O	      6.28796      6.15758     10.48349        -0.110878     -0.009230      0.053305
O	      8.40280      8.22747     10.71172        -0.005700      0.007335     -0.092837
