# total energy = -227.55861505 eV
 
CRYSTAL
PRIMVEC
-0.001936 6.262602 6.403329 
6.248558 0.000417 6.400889 
4.154571 4.162483 0.011176 
PRIMCOORD
36 1
Li	      4.17811     10.37687      6.46165         0.016858     -0.028408     -0.016702
Li	      2.10304      2.10887      0.05707         0.027800      0.025121      0.008175
Li	      4.15579      6.24732      2.17117        -0.018897      0.059094      0.058280
Li	      2.11762      4.13848      2.12098        -0.014273     -0.013012     -0.015757
Li	      6.22652      4.18965      6.48269        -0.038911      0.025361      0.038876
Li	      2.10529      6.23324      4.24135         0.029316      0.032119     -0.072577
Li	      4.13093      6.25735      6.41436         0.013501      0.016718     -0.049108
Li	      4.20259      4.17733      8.50075         0.007592     -0.029430      0.005935
Li	      6.20292      6.23231      8.55172        -0.000760      0.030715      0.002377
Ti	      8.29654      6.19881      6.59939        -0.084461     -0.037748      0.479699
Mn	      2.07785      4.19202      6.36708        -0.063166     -0.127025      0.047655
V	      6.30745      8.27480     10.72980         0.089004     -0.153819     -0.012254
V	      6.28759      4.11045     10.55641        -0.132119     -0.061019     -0.056440
Fe	      2.06073      0.05420      2.06555         0.106310     -0.157076     -0.008714
Fe	      8.32888     10.42379     10.69253         0.058554     -0.006559      0.078905
Co	      2.06946      2.07859      4.22798         0.021753      0.112045     -0.021800
Co	      4.10769      4.24819      4.22256        -0.091806      0.003623     -0.017319
Cu	      4.11788      2.10202      2.07489         0.038333     -0.075378     -0.041548
O	      2.11557      2.02473      2.11756        -0.112621      0.120917      0.037046
O	      4.22011      4.08766      2.17363        -0.067942      0.071641      0.059902
O	      4.25042      2.05872      4.40850        -0.105168     -0.000506      0.149956
O	      6.28418      4.06004      4.24528        -0.054584      0.240270     -0.033191
O	      6.16342      2.11608      6.19056         0.003022      0.008327      0.128472
O	      8.27889      4.29257      6.32860        -0.001202      0.093221      0.064564
O	      1.99847      4.19222      4.19820         0.216571     -0.178642     -0.015744
O	      4.18092      6.31990      4.25067         0.009775     -0.059416     -0.019956
O	      4.05029      4.08990      6.36810         0.051297      0.021829     -0.049764
O	      6.33149      6.35357      6.38931        -0.015894      0.022005     -0.064805
O	      6.19099      4.20638      8.77201         0.017275      0.043708     -0.121641
O	      8.35252      6.25917      8.40235         0.069511     -0.051307     -0.512412
O	      2.09877      6.11459      6.52174         0.010416      0.004341     -0.056066
O	      4.26944      8.35019      6.13750         0.013431      0.007574     -0.021767
O	      4.10150      6.35660      8.64585        -0.018413     -0.065170     -0.007287
O	      6.18681      8.37118      8.79690         0.048540      0.050732     -0.012025
O	      6.19861      6.30046     10.66166         0.016098      0.021977      0.035268
O	      8.29780      8.37870     10.72335        -0.044744      0.033176      0.031768
