# total energy = -226.17694738 eV
 
CRYSTAL
PRIMVEC
-0.012511 6.264776 6.171202 
6.410681 -0.015449 6.174066 
4.258971 4.163588 0.004422 
PRIMCOORD
36 1
Li	      0.02358      6.25479      6.14691         0.049888     -0.006779      0.005956
Li	      4.33029      6.21505     10.25769         0.017180     -0.050167      0.011037
Li	      2.09296      4.16040      2.14946        -0.079339      0.030011     -0.016155
Li	      6.16772      6.47566      4.14625        -0.086614      0.069433      0.025723
Li	      4.15688      4.24417      4.10876        -0.023312      0.038966      0.036664
Li	      0.12642      4.11527      4.03450         0.006273      0.053085     -0.066881
Li	      2.13491      4.15389      6.06491         0.010499     -0.038134      0.023581
Li	      4.24741      6.26197      6.11355         0.020187     -0.004117      0.000334
Li	      4.34235      4.20584      8.26800         0.006761     -0.061770     -0.013996
Ti	      8.46319      6.28584      6.16625        -0.235131      0.288443      0.313403
Mn	      8.56055      8.35987     12.30909        -0.045867      0.109105     -0.041947
V	      4.28639      8.38149      8.21043         0.142142     -0.096260     -0.185775
V	      6.37625      4.14899      6.13537        -0.038858      0.015339      0.087575
Fe	      6.44009      4.15050      2.12744         0.104244     -0.030056      0.025262
Fe	      2.16623      6.14192      4.14321        -0.041981      0.185339     -0.164683
Co	      6.37718      8.29705     10.29609         0.138851     -0.113872      0.030220
Co	      6.35003      6.17155      8.25672         0.401078      0.271519      0.055153
Ni	      4.25564      6.22734      2.12759        -0.074612      0.071971     -0.029536
O	      2.21115      2.05449      2.01595         0.151720     -0.015815     -0.011587
O	      4.40638      4.10802      2.09145         0.013521     -0.159067      0.012521
O	      4.39514      2.04076      4.10502         0.086975     -0.007086     -0.098601
O	      6.39680      3.99890      4.13270         0.003695     -0.034011     -0.128234
O	      6.27004      2.05101      6.10141        -0.016578     -0.091835     -0.090811
O	      8.40164      4.10145      6.14489         0.101900     -0.053164     -0.009576
O	      2.08866      4.26564      4.13228         0.013643     -0.143142      0.000940
O	      4.14876      6.30144      4.11147         0.013857      0.005376      0.076743
O	      4.33085      4.01417      6.16630        -0.039084     -0.274758     -0.043693
O	      6.53941      6.23243      6.13825         0.069376     -0.097606      0.327402
O	      6.37367      4.12469      8.11755        -0.026843      0.279496     -0.064639
O	      8.58905      6.19760      8.12319        -0.281655      0.028248     -0.193676
O	      2.14567      6.41521      6.21573         0.009591      0.003171      0.044099
O	      4.30783      8.39459      6.39854         0.013496     -0.036734      0.348534
O	      4.21005      6.36514      8.24860         0.002435      0.156769      0.011838
O	      6.32097      8.35996      8.34352        -0.141089     -0.237524      0.075258
O	      6.48591      6.36199     10.25762        -0.197025     -0.044090     -0.428174
O	      8.33259      8.27203     10.37974        -0.049324     -0.010283      0.075720
