# total energy = -221.20123880 eV
 
CRYSTAL
PRIMVEC
0.053983 6.336120 6.118833 
6.351250 0.050123 6.123085 
4.266732 4.259974 0.000899 
PRIMCOORD
36 1
Li	      2.26382      6.40205      8.18050         0.039263     -0.001304      0.018347
Li	      4.22013      2.07102      2.10145         0.043482     -0.015460      0.018884
Li	      4.29448      6.36219     10.06756         0.023280     -0.016661     -0.010269
Li	     10.59466      6.41491      8.17950        -0.023320     -0.024608     -0.043591
Li	      2.15402      2.15224      3.99210         0.019827      0.038748     -0.001952
Li	      8.51453      6.37454     10.11640        -0.008810     -0.038454      0.025866
Li	      6.39861      8.49504      6.17377         0.030725      0.015865      0.038230
Li	      8.48394      8.50715      8.17866        -0.060454      0.031366     -0.043608
Li	      6.41114      6.41265      8.13314        -0.069130      0.037129     -0.004916
Ti	      6.51803      8.47871     10.07071         0.001574     -0.084042     -0.627375
Mn	      4.33038      4.24559      0.08586        -0.221181     -0.037864      0.071480
V	      6.37455      4.31645      6.24464        -0.047241     -0.013206      0.046722
V	      4.21654      4.33143      3.99147        -0.299976     -0.090423      0.034787
Fe	      2.15708      2.09805      0.09887         0.029763      0.041651     -0.197358
Fe	      4.26433      6.38991      6.26640         0.009466     -0.020444     -0.083774
Cu	      8.50183      4.31662      8.18665        -0.048899     -0.045137      0.013055
Cu	      8.45241      6.44156      6.17633        -0.025309      0.071491     -0.103020
Ni	      6.36456      4.26313     10.11102        -0.011228      0.020908     -0.083188
O	      8.48305      6.26974      8.06105        -0.045134      0.074218      0.151583
O	      2.17681      2.27460      1.98543        -0.014563     -0.038314      0.262758
O	      4.43275      4.25280      2.02552         0.212673      0.046234      0.320335
O	      4.38492      2.37667      4.18604        -0.051344     -0.064899     -0.041457
O	      6.30923      4.15897      4.21764         0.027982     -0.012348     -0.077779
O	      6.45400      2.21747      6.09538         0.056447     -0.018929      0.051621
O	      8.41029      4.23539      6.09687         0.001785     -0.082643     -0.197734
O	      2.24632      4.23292      4.05702         0.255409      0.010007     -0.037900
O	      4.28530      6.20075      4.09781         0.028441      0.108327     -0.058025
O	      4.33994      4.35167      6.04529         0.046115     -0.010037     -0.124793
O	      6.30800      6.21988      6.09086         0.007275      0.065708     -0.050654
O	      6.23540      4.22713      8.04460        -0.066699     -0.050648      0.076476
O	      2.18917      6.43039      6.13798         0.097672     -0.022687     -0.058510
O	      4.25963      8.44864      5.99293         0.040208      0.018756      0.111714
O	      4.27895      6.40569      8.11435         0.005759      0.013634      0.223099
O	      6.43746      8.44849      8.27403         0.016561      0.006569      0.552060
O	      6.38150      6.47193     10.38993         0.053759      0.101489     -0.211066
O	      8.45223      8.51564     10.22649        -0.054175     -0.013993      0.039951
