# total energy = -90.44257592 eV
 
CRYSTAL
PRIMVEC
-1.986277 4.074528 -1.985970 
1.930091 4.018085 1.929143 
1.966076 0.028898 -5.880804 
PRIMCOORD
16 1
Li	      0.02158      3.90842     -3.83540        -0.304579     -0.000298     -0.762866
Li	      1.83148      5.84436     -3.78934         0.157942      0.618701     -0.714682
Li	      1.81903      3.91001     -5.62822         0.042084      0.095996     -0.707225
Li	     -0.00373      1.96120     -1.90583        -0.592163     -0.082909     -0.050672
Mn	      0.00080      0.00089     -0.00104        -1.154068     -4.243859      1.803138
Mn	     -0.00836      5.84082     -1.95372        -1.042353      3.457436      0.111346
Ni	      1.84413      3.88719     -1.89759         1.535059     -0.168679      1.187938
Ni	      1.83813      1.95564     -3.74149         0.764710     -2.014080     -1.090889
O	     -0.02513      3.98120     -5.77941        -0.278413      0.215891     -1.583680
O	      1.76102      5.77789     -1.90889         1.914452      1.777497      0.045689
O	      1.96819      3.84235     -3.78418         0.480402      1.589080     -1.474735
O	      1.84721      3.71456      0.03359         0.428473      0.495678      1.314246
O	      1.85210      1.99674     -1.81534         0.613712     -1.826796     -0.005524
O	     -0.03523      5.97891     -0.12734        -0.195943      1.096045      1.691010
O	     -0.08797      4.05525     -1.90615        -1.192901     -1.818906     -0.388728
O	      0.07172      1.79168     -0.01639        -1.176416      0.809204      0.625635
