# total energy = -222.37025334 eV
 
CRYSTAL
PRIMVEC
-0.022186 6.305773 6.354658 
6.225756 0.011468 6.320758 
4.153553 4.184630 0.004608 
PRIMCOORD
36 1
Li	      4.15560      2.10421      2.16807        -0.017697      0.029495     -0.021794
Li	      4.10057      6.27401      2.22507         0.000721     -0.051831      0.013175
Li	      2.06897      4.26163      2.22003         0.022319      0.039433     -0.024064
Li	      4.07299      4.23645      4.35567         0.037226      0.000542      0.058223
Li	      4.14791      2.22126      6.28406        -0.022745      0.007932     -0.008006
Li	      6.13128      4.17871      6.32451         0.032096      0.000560      0.032064
Li	      2.17672      6.18165      4.20502         0.064344     -0.058862      0.004991
Li	      2.16749      4.21927      6.22128         0.003516     -0.020740     -0.071101
Li	      4.13153      6.18690      6.22807         0.024934     -0.013002     -0.060376
Ti	      4.11849      4.18248      0.05985        -0.037530     -0.009365      0.371827
Mn	      2.07237      2.15458      4.23736        -0.005482     -0.003090      0.000161
V	      8.28616      8.41789     12.67379        -0.029962     -0.015533      0.180526
V	      6.24239      6.30057      8.34166        -0.089113     -0.028393     -0.027466
Fe	      6.22854     10.44795      8.47280        -0.060624      0.096843     -0.068542
Fe	      4.18185      4.15641      8.27360         0.035186      0.034236      0.096395
Ni	      4.13104      0.04948      4.22869        -0.054279     -0.000352      0.033618
Ni	      6.12944      2.14038      4.23164        -0.037975      0.049630      0.027040
Ni	      0.04923      4.16483      4.22544        -0.021835     -0.005480     -0.024128
O	      2.08964      1.98886      1.87414         0.034963      0.007521     -0.038884
O	      4.24272      4.17071      1.93856        -0.066098      0.011207     -0.385030
O	      4.04796      2.07541      4.22891        -0.063327      0.107583     -0.009136
O	      6.23410      4.27164      4.12212        -0.119279      0.065555      0.029364
O	      6.28351      2.00638      6.26685         0.008554     -0.083037      0.094773
O	      8.38582      4.11363      6.35125         0.099449      0.001585      0.043206
O	      2.07399      4.06780      4.22302         0.117736      0.027892     -0.021303
O	      4.29898      6.32277      4.22018        -0.033445     -0.115716      0.001594
O	      4.15385      4.19636      6.41728        -0.006487      0.016958     -0.097016
O	      6.18453      6.32395      6.58392        -0.010638      0.038734     -0.082559
O	      6.16480      4.34620      8.49803         0.031830     -0.056688     -0.032194
O	      8.16412      6.37330      8.52144         0.111106     -0.030946      0.057534
O	      1.98238      6.36251      6.37631        -0.054576     -0.014383     -0.040217
O	      4.05177      8.52775      6.29199         0.006534      0.106925      0.084913
O	      4.13932      6.22917      8.50263        -0.022426     -0.037311     -0.046278
O	      6.25672      8.39387      8.54084         0.033759      0.004287     -0.079334
O	      6.15950      6.34240     10.54689         0.102011     -0.024414      0.060992
O	      8.26231      8.43671     10.75641        -0.012767     -0.077775     -0.052970
