# total energy = -227.20846844 eV
 
CRYSTAL
PRIMVEC
0.027399 6.241274 6.427748 
6.213083 0.030991 6.423898 
4.162529 4.178269 0.000286 
PRIMCOORD
36 1
Li	      0.07657      6.18056      6.37968         0.031586      0.029533     -0.034158
Li	      6.24080      2.11305      4.31349         0.037113     -0.008264      0.079876
Li	      4.15878      6.32630      2.23602         0.007624      0.066677     -0.015233
Li	      2.06280      4.14119      2.32394        -0.090640     -0.008990     -0.043205
Li	      4.03691      4.19999      4.31458         0.030747      0.001079      0.067151
Li	      6.20532      4.17292      6.48694        -0.002813      0.009197      0.111758
Li	      0.12653      4.10933      4.27786        -0.076313      0.004989     -0.054374
Li	      2.11298      6.06829      4.24296        -0.008271     -0.021326     -0.048994
Li	      2.06123      4.18342      6.26229         0.037715     -0.036506      0.008998
Ti	      8.36191      4.21141      4.38031         0.244198     -0.212798      0.210508
Mn	      8.35731      8.32686      8.59749         0.149361     -0.038878      0.023993
V	      6.05930      4.19929      2.16234         0.142985      0.284518     -0.363471
V	      4.23579      2.15958      6.41167        -0.062826      0.100168      0.109332
Fe	      8.22134      2.10772      6.43381        -0.129248     -0.056264      0.251784
Fe	      4.19487      6.25559      6.25607         0.128127     -0.184506      0.180627
Fe	      6.27734      6.23947      8.57640         0.060863      0.050310     -0.259524
Co	      2.06123      2.14394      4.26066        -0.128485      0.453352      0.026290
Cu	      4.18243      2.19799      2.08768        -0.106969     -0.037583     -0.053168
O	      2.04253      1.99964      2.17057         0.068019     -0.300585     -1.046413
O	      4.30963      4.18926      2.13311        -0.151166     -0.015059      0.072824
O	      4.03850      2.03436      4.35239         0.442963     -0.060757     -0.011798
O	      6.34905      4.32907      4.11957         0.053272     -0.202604     -0.143205
O	      6.22429      2.11240      6.42336        -0.154582     -0.020012     -0.047228
O	      8.31957      4.22557      6.30799         0.038498      0.062881     -0.296465
O	      2.08508      4.02186      4.27145         0.095732      0.144478     -0.041495
O	      4.28023      6.23305      4.34497        -0.509370     -0.149182     -0.081247
O	      4.19088      4.17099      6.41747        -0.019324     -0.061569     -0.043159
O	      6.27244      6.27926      6.42906         0.038535     -0.032371      0.917094
O	      6.14780      4.29471      8.56852        -0.000182     -0.159723      0.084210
O	      8.26399      6.30372      8.52312         0.138126      0.049970     -0.051681
O	      2.15547      6.29140      6.54799        -0.068719     -0.148215      0.133228
O	      4.04306      8.23326      6.41272         0.212748      0.176338      0.137608
O	      4.15375      6.20319      8.60146        -0.093708      0.043051      0.040470
O	      6.39784      8.37067      8.59310        -0.147146      0.072909      0.103132
O	      6.11461      6.32670     10.57916        -0.240797     -0.005349      0.117053
O	      8.26982      8.51997     10.83115         0.032346      0.211093     -0.041117
