# total energy = -226.32241188 eV
 
CRYSTAL
PRIMVEC
0.017006 6.369435 6.231253 
6.357936 -0.021736 6.272648 
4.215347 4.248902 0.008960 
PRIMCOORD
36 1
Li	     10.39327      4.38613      6.28026        -0.002692     -0.002839      0.055454
Li	      4.17560      2.18085      2.04520         0.038553      0.051245      0.006982
Li	      8.47940      4.27612      4.39399        -0.016508      0.030974      0.023602
Li	      6.31127      2.09202      4.41201        -0.027275      0.016582     -0.056189
Li	      6.33008      2.10035      8.16576         0.048535      0.001238      0.022567
Li	      8.48082      4.24230      8.16531         0.063856     -0.055234      0.041320
Li	      4.46614      1.90272      6.26164         0.035652     -0.064429     -0.043685
Li	      6.55800      4.03735      6.28757         0.006145     -0.062794      0.064647
Li	      4.24007      6.42451      6.24494         0.030731      0.020983      0.018108
Ti	      2.11911      6.41366      8.23483        -0.386180      0.112412      0.133682
Mn	      4.24877      4.23368      8.30060        -0.120818      0.337029     -0.152554
V	      4.25479      4.19668      4.24014         0.127084     -0.412380     -0.388425
V	      6.33152      6.37192      8.28407        -0.183805      0.130993     -0.322432
Fe	      6.39248      6.31864      4.27358         0.250535     -0.033495     -0.086830
Fe	      4.21267      8.50549      4.23691        -0.024314      0.034325     -0.074796
Fe	      8.47412      6.38712     10.44318        -0.089641     -0.082776      0.216228
Co	      6.26056      8.48524      6.23894        -0.083754     -0.094993      0.190458
Ni	      8.40168      2.23615      6.30329        -0.224015      0.124512      0.184534
O	      2.17739      1.92929      2.13971        -0.000884     -0.408957      0.247657
O	      4.38970      4.20155      2.25588         0.262616      0.039727      0.107015
O	      4.14243      2.24363      4.17711        -0.172793      0.126275      0.005082
O	      6.25168      4.30139      4.10931        -0.113733      0.112795     -0.026441
O	      6.41123      2.09366      6.29204        -0.135277     -0.042099     -0.028799
O	      8.46984      4.20987      6.30145         0.097869      0.227739     -0.039507
O	      2.15161      4.22704      4.04457        -0.097779      0.202094     -0.127019
O	      4.24382      6.33355      4.13029        -0.206299      0.170754      0.016619
O	      4.14921      4.30157      6.03222        -0.187989      0.073240      0.326792
O	      6.29700      6.42366      6.26122        -0.102485      0.642649     -0.056755
O	      6.20180      4.35991      8.37632        -0.113105     -0.532623      0.237317
O	      8.40802      6.51642      8.39980        -0.384496     -0.084925      0.139389
O	      2.12281      6.33021      6.31009        -0.010406     -0.440073     -0.347534
O	      4.22698      8.48232      6.17127         0.637940     -0.104028     -0.130995
O	      4.16236      6.22025      8.33698         0.384595     -0.079713      0.032978
O	      6.46137      8.48771      8.36285         0.300031      0.416282     -0.134882
O	      6.45569      6.26049     10.30375         0.256559     -0.046517      0.242760
O	      8.56142      8.36747     10.50169         0.143549     -0.323974     -0.296346
