# total energy = -230.01039114 eV
 
CRYSTAL
PRIMVEC
0.013381 6.325971 6.226877 
6.311492 0.013834 6.226383 
4.208365 4.217954 0.008530 
PRIMCOORD
36 1
Li	      2.15293      8.42580      6.24324         0.008251     -0.029429      0.016810
Li	      6.31006      4.26199      2.14212         0.012060      0.072130     -0.039341
Li	      8.36154      4.21025      4.15996         0.024044     -0.011321     -0.042513
Li	      6.27753      2.23426      4.14876         0.021791     -0.054428     -0.004909
Li	      4.22648      6.33260      2.11418        -0.017098     -0.061180      0.019021
Li	      4.28236      4.22660      4.16534        -0.060974      0.046568     -0.044808
Li	      2.12108      4.19583      6.20256        -0.021402      0.012050     -0.034729
Li	      4.20701      6.30449      6.22818        -0.040399      0.050677     -0.045995
Li	      6.26837      6.34654      8.28318         0.033024      0.016486      0.026794
Ti	      0.09794      6.35948      6.24369         0.322004      0.065640      0.073347
Mn	      6.31516      4.21786      6.23301        -0.074187      0.031468     -0.108103
V	      4.29837      8.34732      8.33886        -0.142805      0.052701      0.166785
V	      4.17658      2.12617      6.19333        -0.233500      0.155127      0.048755
Fe	      4.21273      8.39858      4.14434         0.042090     -0.068895      0.039650
Fe	      8.45757      6.33639     10.34333         0.011468     -0.055568     -0.137619
Fe	      4.09212      4.35704      8.27862        -0.065929     -0.116723      0.219283
Co	      6.31544      6.28180      4.15618         0.014649      0.022210      0.210608
Co	      2.13228      4.18936      2.07611         0.073650     -0.003054      0.014117
O	      2.35220      2.11437      2.08473         0.047648      0.016132     -0.107058
O	      4.25776      4.09746      1.98086        -0.002957      0.064880     -0.102939
O	      4.23638      2.10322      4.12461        -0.006570      0.010360      0.021578
O	      6.29381      4.23560      4.34145         0.099878      0.102369      0.249845
O	      6.22192      2.03604      6.25533         0.101643     -0.085240     -0.011677
O	      8.50169      4.26206      6.24859        -0.043409      0.175067     -0.141527
O	      2.03054      4.26278      4.11645         0.120089     -0.109434      0.022712
O	      4.15082      6.41210      4.14484         0.046015     -0.127067      0.033323
O	      4.19338      4.19887      6.32553         0.084746     -0.369653     -0.261362
O	      6.43298      6.28348      6.22794         0.015518      0.079021     -0.044348
O	      6.25669      4.22936      8.25928         0.006446     -0.048785     -0.326000
O	      8.37745      6.40106      8.28125         0.039977     -0.006792      0.039118
O	      1.98760      6.38319      6.12989        -0.290963     -0.026205      0.144938
O	      4.22470      8.53352      6.26311         0.030572      0.082189      0.003855
O	      4.19475      6.35893      8.30068        -0.015290      0.002106     -0.004184
O	      6.19896      8.45116      8.32903         0.003630     -0.025425     -0.061524
O	      6.38513      6.22385     10.47720        -0.127926      0.022142      0.121949
O	      8.47720      8.38155     10.27797        -0.015783      0.119875      0.046148
