# total energy = -226.13515738 eV
 
CRYSTAL
PRIMVEC
0.022306 6.210578 6.356360 
6.276693 0.015312 6.363698 
4.171014 4.131605 0.024477 
PRIMCOORD
36 1
Li	      8.38220      8.28034     12.68266         0.006756     -0.011309      0.012393
Li	      2.09600      0.01164      2.12089         0.039342      0.063470      0.023952
Li	      4.27480      6.17895     10.61843         0.005675     -0.010884     -0.021041
Li	      4.18718      4.13079      4.29960        -0.025136     -0.000807     -0.022240
Li	      4.20466      2.16058      6.34397        -0.077240      0.039673      0.010622
Li	      6.24966      4.10280      6.38895         0.007685     -0.000089      0.042131
Li	     10.43067      8.34182     10.66838        -0.006611      0.009601     -0.003513
Li	      2.13499      4.14141      6.36115         0.009364      0.042116     -0.026912
Li	      6.25209      6.24321      8.52786        -0.047961      0.031004      0.074410
Ti	      6.32365      6.06305      4.33198        -0.011819     -0.115780      0.122851
Mn	      2.07369      6.16713      4.23932        -0.056491     -0.047776      0.149887
V	      8.30616      4.14888      8.42816        -0.032048     -0.171878      0.198943
V	      4.21458      4.17659      8.45917        -0.033095      0.022137     -0.030802
Fe	      4.31233      8.26400      8.44520        -0.151323      0.121958      0.049155
Fe	      6.25034      2.09522      4.37366        -0.096404      0.049480     -0.164375
Fe	      4.18154      6.22155      6.34014        -0.002627      0.048211      0.020280
Cu	      6.30377      2.04603      8.38658         0.070768      0.001122     -0.005842
Ni	      0.02350      6.19538      6.33957         0.077175     -0.084513     -0.036508
O	      2.23911      2.13292      2.23826         0.014059      0.041256      0.099279
O	      4.08752      4.14569      2.07535         0.007679     -0.008354      0.138441
O	      4.15400      2.07887      4.19381        -0.089781      0.023725      0.039699
O	      6.28691      4.18921      4.27277         0.055612      0.251464      0.060419
O	      6.26026      2.05876      6.32955         0.002560      0.139240     -0.007415
O	      8.34726      4.17237      6.64611        -0.105598     -0.017645     -0.285236
O	      2.09609      4.10885      4.04055         0.044574      0.027157      0.053763
O	      4.30194      6.18764      4.24985         0.109036     -0.019431      0.128378
O	      4.16577      4.23201      6.50094         0.057137     -0.160069     -0.005112
O	      6.23310      6.25545      6.18950         0.142954     -0.075759     -0.221752
O	      6.25581      4.01921      8.48548         0.027793      0.146805      0.017772
O	      8.23429      6.16053      8.66321        -0.154808      0.067836     -0.054445
O	      2.16559      6.18938      6.15041         0.000861      0.060392     -0.068904
O	      4.21514      8.24889      6.46687        -0.019146     -0.032278     -0.113629
O	      4.22832      6.26273      8.36079         0.033908     -0.165222      0.117917
O	      6.29314      8.35147      8.62215         0.198485     -0.063835     -0.045294
O	      6.26058      6.30378     10.68619        -0.112858     -0.078581     -0.204100
O	      8.30506      8.26462     10.53306         0.111522     -0.122438     -0.043173
