# total energy = -225.58547249 eV
 
CRYSTAL
PRIMVEC
-0.017923 6.372023 6.194061 
6.402346 -0.033494 6.209819 
4.252094 4.241965 -0.005788 
PRIMCOORD
36 1
Li	      8.42143      2.13638      6.18520        -0.061087     -0.022995      0.002359
Li	      8.45552      4.21344      4.19914        -0.014520      0.033844     -0.000931
Li	      6.38514      2.13229      4.20867        -0.036284     -0.051229      0.000715
Li	      6.41264      2.11428      8.16415        -0.019550     -0.053098     -0.025918
Li	      4.30092      4.17499      4.16063         0.023373     -0.064110     -0.042114
Li	      4.35326      2.10759      6.16860         0.056835     -0.013776     -0.017752
Li	      6.41089      8.45361      6.22461        -0.005350      0.056922      0.030830
Li	      8.49019      8.42871      8.28035        -0.038382     -0.010448      0.036515
Li	      6.41058      6.37748      8.23609         0.008064      0.067401      0.005400
Ti	      4.31088      6.18393      6.22980         0.109536     -0.478802      0.240758
Mn	     10.55077      4.25729      6.20439         0.009203      0.210833     -0.078200
V	      4.31251      8.50888      8.23941        -0.245530     -0.339450      0.059287
V	      8.52663      6.40079     10.24785        -0.093201     -0.045522     -0.194903
Fe	      6.38057      4.17132      2.14939         0.227157      0.187769     -0.037650
Fe	      2.26343      2.11507      4.15667        -0.061322      0.052265     -0.024829
Fe	      6.33154      4.24833     10.24577         0.021938      0.078675      0.136772
Cu	      8.44471      4.19675      8.22725         0.112808      0.112689     -0.063129
Cu	      6.42057      4.11718      6.24559        -0.085554     -0.043671     -0.071803
O	      2.24157      1.98838      2.13154        -0.078320     -0.145139      0.070125
O	      4.36058      4.23422      1.98217         0.004499     -0.176558     -0.031093
O	      4.18304      2.15463      4.06197        -0.022490     -0.057488      0.090110
O	      6.39710      4.31975      4.14509        -0.004433      0.097820     -0.068135
O	      6.35854      1.89423      6.19590         0.007318     -0.021839      0.067038
O	      8.39850      4.19967      6.29829         0.089137      0.010016     -0.010970
O	      2.03774      4.24541      4.01744        -0.064837     -0.003969      0.012633
O	      4.18006      6.44048      4.20595         0.078349      0.103763      0.075852
O	      4.34920      4.33006      6.20532        -0.037950      0.548731      0.003353
O	      6.20716      6.50476      6.10826        -0.209900     -0.007609     -0.032244
O	      6.36297      4.22367      8.29929        -0.002550     -0.010394     -0.013565
O	      8.49379      6.37287      8.47268         0.042577      0.051130      0.119027
O	      2.29258      6.30158      6.09170         0.073678      0.014657     -0.000690
O	      4.22041      8.59355      6.19973        -0.012058     -0.118492      0.018777
O	      4.17809      6.39982      8.15564         0.040057     -0.080258     -0.274304
O	      6.28016      8.56752      8.29085         0.063463      0.221807      0.010015
O	      6.50754      6.27185     10.42497         0.007176     -0.056364      0.011771
O	      8.59501      8.34454     10.34374         0.118152     -0.047113     -0.003108
