# total energy = -224.46440170 eV
 
CRYSTAL
PRIMVEC
0.013222 6.265921 6.247695 
6.263441 0.015968 6.244869 
4.197760 4.197565 -0.011729 
PRIMCOORD
36 1
Li	      4.20512      4.21935      0.23079         0.013206      0.014004     -0.081917
Li	      6.09144      4.24901      2.07073         0.018032     -0.013896      0.005348
Li	      4.16642      2.30415      2.06874        -0.002689      0.010102      0.017692
Li	      4.23383      6.12079      2.07565         0.007171     -0.019092      0.002437
Li	      2.30487      4.17000      2.03920        -0.013805      0.014020     -0.001668
Li	      4.18492      4.19593      3.94083        -0.018004     -0.011453      0.058141
Li	      6.30054      4.15051      6.24380         0.013649     -0.006633      0.021476
Li	      4.17991      6.26798      6.25610        -0.015635     -0.030622      0.049091
Li	      4.18928      4.19233      8.28421        -0.006647      0.010673      0.035525
Ti	      6.13759      6.13955      8.29281        -0.348956     -0.224671     -0.044098
Mn	      6.23127      2.22223      4.08645         0.004687      0.011383     -0.038622
V	      2.21994      6.26557      4.09987         0.075437     -0.021105     -0.000294
V	      6.28757      8.45121      6.30495        -0.040347      0.031397      0.030019
Fe	      2.17050      2.17898      0.11372        -0.008592     -0.089822      0.045995
Fe	      2.04058      2.02539      4.00523        -0.021996      0.065406      0.036883
Fe	      8.42822      6.23083      6.30784         0.034119     -0.018871     -0.016778
Ni	      8.35386      4.19979      4.16243         0.030224     -0.017401     -0.083212
Ni	      0.03429      4.16601      4.15727         0.023206      0.029322     -0.013183
O	      4.19588      4.21723      2.07810        -0.007250     -0.008603     -0.024517
O	      2.10025      2.09861      2.04631        -0.015024     -0.000304     -0.003570
O	      4.05742      2.04462      4.29021         0.036485      0.110227     -0.029662
O	      6.29774      4.23659      4.16212        -0.126091     -0.195959     -0.001319
O	      6.24792      2.14611      6.05602         0.043315      0.014395     -0.014479
O	      8.38760      4.17993      6.20043         0.000384      0.083991      0.093846
O	      2.06284      4.14567      4.29839         0.095398     -0.029547     -0.004290
O	      4.23015      6.31834      4.15053        -0.074114     -0.115374      0.006392
O	      3.92086      4.08214      6.28917         0.036351      0.051317      0.013278
O	      6.30183      6.34877      6.31230        -0.036233     -0.042763      0.046537
O	      6.25489      4.30436      8.33702        -0.017759      0.293952     -0.091523
O	      8.30537      6.30601      8.30858        -0.049329     -0.013166      0.044834
O	      2.14226      6.23495      6.11896        -0.024798      0.027267      0.004066
O	      4.32333      8.37090      6.22286        -0.002575      0.002496      0.102114
O	      4.29975      6.24626      8.37160         0.420786     -0.018520     -0.121814
O	      6.26916      8.30922      8.34278        -0.001273     -0.001602      0.052645
O	      6.39827      6.37372     10.28676         0.044642      0.134716     -0.066363
O	      8.45060      8.36781     10.54696        -0.065974     -0.025261     -0.029012
