# total energy = -230.89139526 eV
 
CRYSTAL
PRIMVEC
0.034646 6.300048 6.307507 
6.220659 0.039336 6.303353 
4.172539 4.222938 0.000457 
PRIMCOORD
36 1
Li	     10.38275      4.26686      6.31125        -0.009935      0.019773      0.033907
Li	      8.34527      8.46333     12.58266         0.011195      0.015181      0.016794
Li	      4.21554      8.45762      8.36192        -0.007882      0.019149     -0.041906
Li	      6.18559      2.14028      4.29551        -0.058423     -0.033002      0.062709
Li	      6.22520      2.11136      8.32288        -0.043096     -0.031700     -0.119777
Li	      4.15677      4.15479      4.23421        -0.032329     -0.058864      0.020687
Li	      4.22591      2.14304      6.22467         0.013768     -0.007977     -0.022390
Li	      4.20314      8.44053      4.31040         0.007033      0.038914      0.091622
Li	      6.21709      8.42369      6.29245        -0.010630      0.007400      0.013444
Ti	      2.10352      6.31917      4.30151        -0.002737     -0.072120      0.031234
Mn	      6.22755      6.40690      8.35179         0.140777      0.068772     -0.009567
V	      2.15758      4.11619      2.09651         0.042949     -0.036619     -0.261833
V	      8.35317      8.41720      8.40613        -0.192994     -0.021387     -0.070868
Fe	      6.10417      4.20347      2.13038         0.151580     -0.132431     -0.162929
Fe	      4.20140      0.14932      4.30053         0.181658     -0.271791     -0.069393
Fe	      6.21670      4.06542      6.25269         0.051939      0.281936      0.031749
Fe	      4.22119      6.47624      6.24813        -0.090615     -0.314942      0.263136
Co	      2.07502      2.15266      4.21370         0.084174      0.109308      0.023029
O	      2.07803      2.24245      2.17876        -0.066379      0.245682     -0.388251
O	      4.16318      4.21698      2.09991        -0.184250      0.043021      0.019324
O	      4.08966      2.02507      4.20601         0.388442      0.216935     -0.088941
O	      6.31145      4.21703      4.16355        -0.017744      0.049928     -0.008961
O	      6.23480      2.21551      6.29439         0.028663     -0.229504     -0.002789
O	      8.29178      4.23079      6.36964         0.043342      0.044184     -0.051902
O	      2.11251      4.34251      4.06996        -0.052497      0.044733      0.118772
O	      4.08345      6.32265      4.26234        -0.310830     -0.016554     -0.057008
O	      4.23920      4.30592      6.41135        -0.127696      0.017864      0.021162
O	      6.22618      6.27039      6.21021        -0.134515     -0.118078      0.466006
O	      6.30683      4.23246      8.33937         0.008285     -0.100370      0.039035
O	      8.35831      6.23614      8.51881         0.125842     -0.050839      0.079148
O	      2.12878      6.31720      6.24703         0.000231      0.001562     -0.101169
O	      4.20919      8.32389      6.33328        -0.006040      0.234432      0.012547
O	      4.06281      6.27384      8.45458        -0.043177      0.090042      0.033965
O	      6.37193      8.54632      8.37537         0.063215      0.011563      0.015982
O	      6.29146      6.35389     10.52126         0.068494     -0.042549      0.065869
O	      8.37569      8.35210     10.40326        -0.019818     -0.021645     -0.002437
