# total energy = -229.78080145 eV
 
CRYSTAL
PRIMVEC
-0.031450 6.251993 6.292304 
6.345967 -0.017418 6.278216 
4.221174 4.149023 -0.002144 
PRIMCOORD
36 1
Li	      8.42634      2.05585      6.26548         0.006290     -0.038873      0.019974
Li	      4.19998      8.33875      8.33279        -0.054353      0.007090     -0.035439
Li	      8.43021      4.11937      4.20526         0.002479     -0.008372     -0.014538
Li	      6.37115      2.09301      4.21384         0.048903      0.026196     -0.019904
Li	      6.35376      2.06386      8.32633         0.009529     -0.041878     -0.013837
Li	      6.36640      4.06340      6.29339        -0.007182     -0.042362     -0.001391
Li	      4.19188      8.31740      4.24085        -0.005990     -0.002023      0.021516
Li	      2.10471      6.23322      4.24667         0.019734     -0.021202      0.047701
Li	      6.26128      8.36224      6.31109        -0.024000      0.062107      0.013051
Ti	      6.29241      6.17037      4.21575        -0.053271     -0.096633     -0.108444
Mn	      6.31405      6.29811      8.41742         0.083372     -0.003866      0.016473
V	      6.36065      6.18843     12.43462         0.103849     -0.146803      0.196432
V	      8.47602      8.32799      8.52513         0.044011     -0.127492      0.019638
Fe	      8.38530      4.06236      8.35196        -0.045180      0.054483     -0.037556
Fe	      4.19769      4.15485      4.14198        -0.015393     -0.013474      0.019590
Fe	      4.32124      2.08363      6.26846        -0.075233      0.036235     -0.020824
Fe	      4.11229      6.34743      6.29546        -0.067087     -0.088836      0.069123
Cu	      2.07242      6.22660      8.34422        -0.041222      0.121749     -0.026004
O	      2.08477      2.10176      2.22225        -0.029979      0.100198      0.087142
O	      4.05736      4.15185      2.09429        -0.078277      0.018352     -0.036044
O	      4.11868      2.12811      4.24353        -0.064429     -0.097586     -0.090214
O	      6.24625      4.23108      4.14867         0.092291      0.041067      0.084048
O	      6.27826      1.95467      6.26624         0.057651      0.046462     -0.005407
O	      8.53087      4.17730      6.34778        -0.031793      0.016055     -0.099217
O	      2.16460      4.08361      4.10004        -0.086680     -0.059795      0.101914
O	      4.32183      6.15875      4.20502         0.164963      0.151629      0.034728
O	      4.25424      4.10913      6.30579         0.025634     -0.028007      0.063087
O	      6.39427      6.23734      6.14802         0.055365      0.003727     -0.063521
O	      6.32248      4.17817      8.37165        -0.078881      0.046848     -0.007002
O	      8.40304      6.27506      8.30625        -0.000408      0.004864      0.075374
O	      1.97427      6.27427      6.30449        -0.098930     -0.012403     -0.032419
O	      4.17783      8.40359      6.30888         0.011257      0.282652     -0.086983
O	      4.28454      6.13307      8.38820         0.061117      0.056893      0.033842
O	      6.47489      8.35297      8.38998         0.059996     -0.249126      0.003758
O	      6.30740      6.23043     10.64824        -0.010444      0.003407     -0.200031
O	      8.46565      8.27381     10.27794         0.022288     -0.001284     -0.008617
