# total energy = -233.66568761 eV
 
CRYSTAL
PRIMVEC
-0.008235 6.331078 6.289752 
6.316248 -0.008542 6.290468 
4.234012 4.243762 -0.028311 
PRIMCOORD
36 1
Li	      8.42301      8.44112     12.54733         0.008362     -0.017375      0.004216
Li	      4.17675      2.15686      2.16690        -0.003588      0.008472      0.013971
Li	      6.34892      8.43968     10.48536         0.021047     -0.036158      0.035931
Li	      2.13033      4.21678      2.12221        -0.014963      0.015858     -0.039970
Li	      2.09926      2.13986      4.15588        -0.012731     -0.013229      0.041811
Li	      4.15637      4.21472      4.14408         0.016637     -0.001784      0.018113
Li	      8.47724      6.39135     10.43720        -0.021236      0.049318      0.001610
Li	      4.22341      6.33485      6.18763        -0.004713     -0.004167     -0.045002
Li	      8.43599      8.43310      8.41501        -0.014323     -0.001686     -0.048044
Ti	      2.17004      0.04651      2.15973         0.126857      0.119344     -0.027104
Mn	      6.34437      6.39328      8.41632         0.015174      0.008072      0.018968
V	      4.20788      2.11565      6.23730         0.008652     -0.009561      0.014577
V	      2.15945      4.25288      6.21165        -0.112628      0.023315     -0.055983
Fe	      4.22718      4.21729      0.00472         0.055851     -0.048969     -0.039622
Fe	      8.44373      4.21833      4.19084         0.040364     -0.044312     -0.088157
Fe	      4.19431      6.35259      2.12968         0.049065     -0.033911      0.059565
Fe	      6.26122      4.23515      6.24800         0.020880      0.015835      0.022002
Fe	      4.16240      8.39446      4.16986         0.113911      0.087075      0.011720
O	      2.02834      1.94298      2.07956         0.041399     -0.177501      0.001494
O	      4.30591      4.27067      2.03797         0.073637     -0.014852      0.042132
O	      4.22470      1.98105      4.26501         0.035450      0.094508      0.006553
O	      6.37819      4.17586      4.10031        -0.044691     -0.021378     -0.096411
O	      6.25602      2.02525      6.34304         0.041751      0.021310      0.014942
O	      8.49981      4.24314      6.22264        -0.065463     -0.033904      0.067297
O	      2.04619      4.25050      4.36821        -0.051702      0.005461     -0.036785
O	      4.21131      6.43732      4.09806         0.014135     -0.097632      0.049523
O	      4.11010      4.20841      6.21156         0.041682      0.019597      0.045238
O	      6.40035      6.46627      6.27243         0.040431     -0.084397     -0.021804
O	      6.36261      4.15100      8.38419         0.002661      0.055677     -0.055858
O	      8.51612      6.33587      8.27376        -0.059892     -0.003993     -0.005529
O	      2.05430      6.25349      6.39093         0.012559      0.098750      0.095323
O	      4.32492      8.53180      6.20832         0.010626     -0.020530      0.051571
O	      4.08604      6.35117      8.45483        -0.165224     -0.012533     -0.051673
O	      6.30873      8.56881      8.17124         0.018232      0.070288      0.036142
O	      6.28890      6.27062     10.55151        -0.053594     -0.010176     -0.016437
O	      8.52104      8.53403     10.47668        -0.184615     -0.004831     -0.024320
