# total energy = -221.61371637 eV
 
CRYSTAL
PRIMVEC
0.001612 6.181068 6.222112 
6.467217 -0.000630 6.223573 
4.309721 4.119670 0.001765 
PRIMCOORD
36 1
Li	      4.29415      2.15152      2.13926         0.023646     -0.017226     -0.044648
Li	      6.41512      2.12081      4.20951         0.007861      0.014693      0.000903
Li	      4.34883      6.07644      2.02427         0.117935      0.039634      0.062342
Li	      2.30114      4.13212      2.12868        -0.028671     -0.021108      0.002520
Li	      2.25673      2.04388      4.20068        -0.023762      0.032435     -0.009112
Li	      4.30889      4.04272      4.11791         0.020778      0.015364     -0.044092
Li	      2.29293      4.04202      6.19667         0.023707      0.035845     -0.024440
Li	      4.37435      6.09193      6.20176        -0.057857      0.063136     -0.033514
Li	      4.31100      4.12287      8.16800        -0.018033      0.014609      0.030587
Ti	      2.31474      6.10744      4.09492         0.195954     -0.168493     -0.091107
Mn	      4.24621      0.04507      4.13146        -0.076475     -0.287829     -0.000628
Mn	      0.02758      4.11763      4.12388        -0.009782     -0.078691     -0.127524
V	      2.12060      2.06136      0.11468         0.036209      0.000672      0.143579
V	      6.38377      6.31581      8.25557         0.009608     -0.089275     -0.029739
Co	      6.39099      4.04176      2.08492         0.021157      0.051127      0.016457
Cu	      4.27448      2.11346      6.20998         0.025806     -0.076875      0.131298
Ni	      4.28773      4.13674      0.07136        -0.011094     -0.006354     -0.039127
Ni	      6.36438      4.10752      6.24499         0.114873     -0.012417      0.045633
O	      2.22556      2.05874      1.88988         0.045006      0.189898      0.190051
O	      4.41140      4.09743      2.05934         0.368438     -0.000931      0.216632
O	      4.32363      1.90223      4.20805        -0.000945      0.053605     -0.026526
O	      6.67943      4.14123      4.13266        -0.084912     -0.002655     -0.165412
O	      6.65179      2.07732      6.25274         0.009732     -0.001662     -0.041795
O	      8.60418      4.12237      6.12373        -0.037356      0.028442     -0.102883
O	      2.16225      4.26397      4.16394         0.026500      0.238697     -0.014947
O	      4.16156      6.25382      4.07299        -0.262725     -0.029035      0.039236
O	      4.37639      4.01427      6.17037        -0.165355      0.113235      0.013381
O	      6.34658      6.13159      6.35886        -0.111418      0.102675     -0.066544
O	      6.46951      4.29800      8.40807        -0.072958      0.012976      0.030514
O	      8.45629      6.22222      8.41607        -0.020222      0.018804      0.119879
O	      2.08303      6.26797      6.09155         0.097895     -0.214618     -0.005125
O	      4.15298      8.26713      6.04813         0.065597     -0.110265      0.052065
O	      4.35063      6.17691      8.44927        -0.169468      0.047788     -0.006574
O	      6.45376      8.11060      8.30522         0.010131     -0.080097     -0.036274
O	      6.33927      6.13175     10.34608        -0.047719      0.076173     -0.078863
O	      8.58093      8.27246     10.49891        -0.022084      0.047723     -0.106203
