# total energy = -221.46564023 eV
 
CRYSTAL
PRIMVEC
-0.010855 6.370213 6.327337 
6.083400 -0.017413 6.335334 
4.063475 4.260995 -0.019815 
PRIMCOORD
36 1
Li	      9.99525      4.10439      6.30245        -0.081266      0.092449     -0.083995
Li	      8.14037      2.25526      6.28643        -0.116133      0.075177     -0.033143
Li	      4.03962      2.16594      2.11310         0.105138      0.057233      0.019907
Li	      8.14089      4.25375      4.31652         0.014327     -0.004102      0.052782
Li	      2.08191      4.20483      2.10631        -0.064820      0.082895     -0.065308
Li	      2.12857      2.23702      4.13793         0.077456     -0.020859     -0.013704
Li	      8.11493      6.29996      6.32456         0.014262     -0.020561      0.084813
Li	      1.96252      6.24406      4.18204        -0.113777      0.040959     -0.102130
Li	      2.04677      4.18907      6.20507         0.070209     -0.029139      0.082998
Ti	      1.97479      0.12073      2.10070        -0.254057      0.126213      0.331214
Mn	     10.04448      6.36519      8.44879        -0.245198      0.151140     -0.204255
Mn	      6.15777      4.27727      6.33574         0.345960     -0.151936      0.149552
V	      6.07911      2.07496      4.25172         0.261528     -0.110882     -0.145778
V	      4.03941      6.41150      6.25836        -0.067100      0.472046     -0.466497
Co	      6.06925      6.41077      8.48429         0.335809      0.050792      0.219467
Cu	      3.97456      4.19584      4.22009         0.058363     -0.100578     -0.045505
Cu	      0.03803      4.28620      4.24857         0.013992      0.097285     -0.209425
Cu	      8.09228      8.50851      8.46798         0.072467     -0.141308      0.088729
O	      2.02475      1.96747      2.10124         0.070683     -0.406682     -0.002254
O	      4.17941      4.22683      1.91661         0.291390     -0.043031     -0.013923
O	      4.20538      2.22775      4.20111        -0.169772     -0.063906      0.028617
O	      6.09409      4.16319      4.04686         0.045676      0.145821     -0.160903
O	      6.10385      2.28832      6.22829         0.011937      0.071679      0.071022
O	      8.02379      4.28581      6.33774        -0.023286     -0.067340     -0.037820
O	      2.02463      4.19811      4.18065        -0.056775      0.000574      0.191615
O	      4.05521      6.16691      4.33756        -0.017073     -0.053936      1.091098
O	      4.18350      4.33943      6.48169        -0.199925      0.577781     -0.352595
O	      5.99619      6.28735      6.50006        -0.343664      0.090161     -0.097006
O	      6.03481      4.41957      8.59349         0.350644      0.177294      0.047504
O	      7.99850      6.49949      8.45047        -0.106980     -0.675782      0.002360
O	      2.20018      6.25544      6.46122         0.393185      0.011590     -0.148533
O	      4.07530      8.30437      6.15806         0.029349     -0.935303      0.242760
O	      4.06655      6.35707      8.34369        -0.091686      0.434934     -0.729492
O	      6.09439      8.41515      8.51186        -0.463144     -0.000718     -0.040448
O	      6.03635      6.53513     10.43574        -0.000307      0.029251     -0.039946
O	      7.99529      8.52555     10.50255        -0.147412      0.040790      0.288222
