# total energy = -222.29500608 eV
 
CRYSTAL
PRIMVEC
0.008389 6.232561 6.198624 
6.374944 0.001934 6.204822 
4.258946 4.168076 -0.007439 
PRIMCOORD
36 1
Li	      4.29996     10.27871      6.16705         0.000320     -0.025911     -0.028105
Li	      2.22936      6.28191      8.20970        -0.011225      0.014622      0.032898
Li	      4.17850      8.24328      8.19418        -0.060771      0.058627      0.030695
Li	      2.16801      4.15839      2.10891         0.012442     -0.018847      0.043796
Li	      2.11522      2.13275      4.07780         0.005455     -0.039849     -0.021688
Li	     10.60083      8.41165     10.40307        -0.101919      0.082972     -0.022985
Li	      2.13605      6.20605      4.14279         0.024385     -0.042498     -0.017848
Li	      4.27613      4.23876      8.31196         0.021343      0.011097      0.026557
Li	      6.26850      6.22190      8.27749        -0.122377     -0.014414      0.033791
Ti	      6.46525      8.19165     10.13799         0.084592     -0.247479     -0.211715
Mn	      4.25103      4.14012      4.14011         0.015383      0.058622     -0.169806
Mn	      6.31109      8.35853      6.24022        -0.051359     -0.027568      0.045980
V	      4.25871      6.16647      2.12430         0.128425      0.037568      0.014235
V	      6.43487      4.23873      6.30010         0.069868      0.023884     -0.171262
Co	      4.26077      6.25549     10.21625        -0.035216      0.132208      0.053263
Ni	      2.16561      8.27235      6.19408        -0.015987      0.046985      0.014877
Ni	      4.28255      2.08178      6.22607        -0.029071     -0.062843     -0.018975
Ni	      4.21621      6.28945      6.27702         0.080793     -0.031965     -0.110858
O	      1.87279      2.11021      2.01648        -0.012933     -0.007454      0.115876
O	      4.22165      4.22486      2.23628         0.025542     -0.031624      0.106080
O	      4.36917      2.18533      4.14262         0.064092     -0.051792     -0.026457
O	      6.27002      4.08958      4.26021         0.022581     -0.025913     -0.000966
O	      6.39592      2.17081      6.19398         0.005740      0.037226     -0.028106
O	      8.35849      4.20845      6.06975         0.102943     -0.162383     -0.241800
O	      2.30858      4.12987      4.30292         0.083425      0.003313     -0.049358
O	      4.28480      6.10105      4.07739        -0.015893     -0.054460     -0.023033
O	      4.39099      4.18219      6.10499        -0.012660      0.021469     -0.072165
O	      6.42420      6.23702      6.22791        -0.063937      0.060515      0.025408
O	      6.38959      4.12483      8.10875         0.022009      0.041474      0.048850
O	      8.78939      6.26183      8.20965        -0.016410     -0.005405      0.169390
O	      2.15570      6.12217      6.21780        -0.115322     -0.117386     -0.040226
O	      4.19194      8.29314      6.16750         0.171591      0.075398      0.026076
O	      4.22977      6.25615      8.28866        -0.040824     -0.134536      0.491490
O	      6.41700      8.30761      8.27639         0.012969     -0.025360      0.225083
O	      6.36122      6.34891     10.31866        -0.091757      0.226826     -0.059950
O	      8.35694      8.33406     10.34907        -0.156238      0.194881     -0.189041
