# total energy = -223.58968542 eV
 
CRYSTAL
PRIMVEC
-0.013597 6.321099 6.176856 
6.230538 -0.009055 6.171825 
4.132537 4.189539 0.015238 
PRIMCOORD
36 1
Li	      6.29176     10.28627      8.27939        -0.042861      0.024570     -0.032347
Li	      4.21234      8.31689      8.26465        -0.040954      0.021191      0.015859
Li	      6.11326      2.33578      8.27080         0.059918     -0.011767     -0.044421
Li	      6.22046      6.21400      4.09263        -0.013050      0.019634     -0.022275
Li	      4.11497      2.27641      6.13985        -0.016229     -0.006320      0.019512
Li	      6.13507      4.34139      6.21337         0.032342      0.029985     -0.046409
Li	      0.02812      4.17991      4.06541         0.012514     -0.037882      0.008537
Li	      6.30391      8.32410      6.23019        -0.003483      0.030050      0.006477
Li	      4.14067      4.21007      8.14398        -0.031737      0.035518     -0.067031
Ti	      4.13767      4.11886      0.15725        -0.027420      0.006187      0.181650
Mn	      4.15977      4.24551      4.10909         0.169375     -0.130654     -0.038042
Mn	      6.27753      6.34231      8.20622        -0.143902      0.192884     -0.316360
V	      2.04683      2.01905      0.14209         0.070781     -0.004521      0.112301
V	      4.08961      0.01273      4.05160        -0.102036      0.129521      0.202908
Co	      8.30216      6.35465     10.26548         0.227843     -0.020479      0.084575
Co	      4.21439      6.32226      6.13938        -0.026489     -0.076409     -0.201096
Cu	      8.23493      4.21874      8.26971         0.196757     -0.210500     -0.155949
Ni	      6.15133      2.08312      4.10811        -0.066518      0.135279      0.054171
O	      2.02571      1.98527      1.89644        -0.020458     -0.084043      0.115679
O	      4.07113      4.09943      2.03075        -0.025972      0.007227     -0.037628
O	      4.09262      1.95506      4.14146        -0.062636      0.018139     -0.016325
O	      6.13939      4.13346      4.08250         0.014262      0.153697      0.004592
O	      6.25207      1.87042      6.20517        -0.068325     -0.036969      0.097739
O	      8.38513      4.02682      6.12560        -0.046861      0.054079     -0.122853
O	      2.19494      4.44069      4.05754        -0.160883      0.148687      0.242423
O	      3.99770      6.40589      4.10752        -0.256276      0.054530      0.191167
O	      4.16484      4.33020      6.00729        -0.034313      0.198383      0.125482
O	      6.25281      6.34982      6.33527         0.122389      0.018665      0.230432
O	      6.32628      4.39646      8.22888        -0.131837     -0.102632      0.031384
O	      8.20715      6.44342      8.35430        -0.016032      0.098993      0.156490
O	      1.97004      6.33693      6.09866        -0.136372     -0.132735     -0.185567
O	      4.03093      8.44473      6.19176         0.073131     -0.081575     -0.021470
O	      4.28487      6.23441      8.30124         0.160518     -0.066616     -0.298670
O	      6.20572      8.25805      8.26245         0.030478     -0.024620     -0.102005
O	      6.25618      6.31493     10.30783         0.168904     -0.170356     -0.019862
O	      8.20563      8.38458     10.48221         0.135433     -0.179142     -0.153066
