# total energy = -224.90795954 eV
 
CRYSTAL
PRIMVEC
0.006356 6.320171 6.411468 
6.123940 0.049199 6.369350 
4.082763 4.186540 0.031907 
PRIMCOORD
36 1
Li	      6.12647      6.35243     12.64333         0.012609      0.019095      0.007566
Li	      4.07346      8.35437      8.49993         0.010329      0.021010     -0.097430
Li	      4.15298      6.41768     10.59800        -0.082759     -0.024358     -0.044667
Li	      6.18045      6.25555      4.32265        -0.033599     -0.028929     -0.017792
Li	      6.16854      4.24919      6.50410        -0.059888     -0.006053      0.102551
Li	      6.12290      4.35794     10.60020         0.014602     -0.020178     -0.009475
Li	      8.10389      6.38422     10.62153         0.084896      0.007645      0.010524
Li	      6.06290      8.41549      6.42314        -0.017927      0.014644     -0.005882
Li	      4.17668      4.23479      8.59653         0.008044      0.045625      0.018420
Ti	      8.18743      8.49748     12.66910         0.141125     -0.034444     -0.336002
Mn	      2.02554      4.18121      2.16360        -0.026046      0.086108      0.045512
Mn	      4.20012      6.33162      6.36745        -0.082120     -0.025905      0.000878
V	      6.16906     10.42653      8.52516        -0.102715     -0.246299     -0.025167
V	      4.04462      4.20102      4.34037         0.010164     -0.002170      0.002778
Co	      4.08440      6.28509      2.21741        -0.022456      0.103852      0.049234
Co	      4.11023      2.17895      6.44428         0.017084     -0.034812     -0.022569
Cu	      6.09080      8.36910     10.66759         0.089608      0.055046     -0.023244
Cu	      6.13599      6.39678      8.57046        -0.075517     -0.050744      0.035735
O	      6.13157      6.43160     10.50021        -0.001357     -0.025483     -0.038861
O	      1.95861      1.94232      2.08504         0.039250     -0.001690     -0.070619
O	      4.04265      4.29567      2.25723        -0.063466     -0.071341      0.024752
O	      4.10717      2.18226      4.48164        -0.002207     -0.141813      0.056885
O	      5.98774      4.14053      4.12535         0.023799      0.042989      0.111107
O	      6.12256      2.16239      6.61966        -0.054388      0.008651      0.062963
O	      8.17322      4.20772      6.56654         0.005619      0.034042     -0.040285
O	      2.17698      4.16236      4.13708        -0.006382     -0.048594      0.051820
O	      4.09969      6.15413      4.21602        -0.001561      0.014737      0.013001
O	      4.09948      4.15569      6.26028        -0.011217     -0.127274     -0.068728
O	      6.23838      6.34169      6.57599         0.273698     -0.025324     -0.007977
O	      6.23870      4.06349      8.58991         0.031655     -0.151687      0.067343
O	      8.24492      6.41673      8.42139         0.091584     -0.042766     -0.075794
O	      2.04084      6.45178      6.48893        -0.052184      0.171917     -0.075574
O	      3.95039      8.44363      6.36646        -0.266504      0.088199     -0.002950
O	      4.00723      6.33951      8.52035         0.063970      0.053386      0.044912
O	      6.03052      8.65345      8.41550        -0.017503      0.321563     -0.106074
O	      8.06958      8.48844     10.81445         0.061761      0.021355      0.363108
