# total energy = -225.35148067 eV
 
CRYSTAL
PRIMVEC
0.055756 6.382245 6.181985 
6.274833 0.046197 6.193528 
4.213005 4.293662 -0.000278 
PRIMCOORD
36 1
Li	      4.12807      4.15819      0.05985         0.047568      0.069709     -0.044945
Li	      2.30958      8.64577      6.19822        -0.060933      0.052478      0.003318
Li	      8.25799      4.29768      8.13909        -0.000376      0.032152      0.122667
Li	      6.28189      4.28590      6.28600         0.050367     -0.026040      0.032759
Li	      4.22785      8.53280      4.19266         0.052994      0.101027     -0.053077
Li	      6.28490      8.52333      6.24978        -0.014492      0.008254     -0.044560
Li	      4.29248      6.58984      6.19930         0.008746      0.042492      0.027531
Li	      4.29718      4.24602      8.15080         0.009612     -0.050650      0.121315
Li	      6.23002      6.11390      8.19269         0.075258     -0.081442      0.035179
Ti	      8.31865      6.50727     10.37912        -0.213877     -0.073849     -0.273847
Mn	      6.23417      2.21186      4.14921         0.184100     -0.016313      0.028530
Mn	      8.39748      6.42924      6.26661         0.053119     -0.180306      0.191876
V	      2.22811      6.42605      8.11644        -0.070599      0.036820     -0.045997
V	      2.05596      2.28020      4.17558         0.020701     -0.727957      0.101720
Co	      4.22056      4.35732      4.21191        -0.102031      0.031231     -0.513153
Co	      8.52597     10.62337     10.37632         0.021020      0.024375      0.068831
Co	      6.33089      2.27094      8.21963        -0.301159      0.185255     -0.064997
Cu	      4.27713      8.55372      8.12037        -0.051811     -0.000693      0.157963
O	      4.26397      8.56955      6.25848        -0.034036      0.008629     -0.188703
O	      2.06295      2.11663      2.10465         0.295575     -0.060742      0.035547
O	      4.45206      4.57815      2.09597        -0.145575     -0.346791      0.742414
O	      4.19930      2.14919      3.96324         0.158170      0.836940      0.069653
O	      6.34155      4.55016      4.01289        -0.739999     -0.875310      0.055577
O	      6.15690      2.17693      6.06634        -0.056858      0.012867     -0.119585
O	      8.40231      4.47153      6.14442         0.016955     -0.040963     -0.196922
O	      2.16397      4.12484      4.07072         1.125956      1.708725      0.261808
O	      4.30391      6.47573      4.18981        -0.454095     -1.069857      0.015952
O	      4.18494      4.06607      6.15489        -0.028729      0.251911     -0.834749
O	      6.41206      6.41686      6.06686         0.045552      0.024549      0.146293
O	      6.27977      4.11653      8.26113         0.027564      0.340544      0.009005
O	      8.54532      6.39315      8.44653        -0.201945     -0.102206      0.094722
O	      2.19755      6.34568      6.13269         0.021152      0.029027      0.090726
O	      4.06089      6.33721      8.29293         0.218051     -0.092059      0.075984
O	      6.27731      8.78946      8.37869         0.102385     -0.027068     -0.208736
O	      6.46145      6.35914     10.23989        -0.145649      0.032286      0.102800
O	      8.28185      8.43672     10.37237         0.087322     -0.057025     -0.002898
