# total energy = -225.47050922 eV
 
CRYSTAL
PRIMVEC
0.008469 6.310510 6.304870 
6.126045 0.003996 6.308859 
4.103581 4.228659 -0.016369 
PRIMCOORD
36 1
Li	      6.11789      6.35267     12.52764         0.005256      0.175195      0.147520
Li	      6.15638      8.35417     10.54876         0.072906      0.054958      0.187631
Li	      4.12281      6.33877      2.11774         0.027332      0.025901     -0.214246
Li	      4.11648      2.14578      6.29948         0.109429     -0.004481      0.033403
Li	      6.12725      4.18109      6.26711         0.048652     -0.251145      0.066520
Li	      6.12043      4.23442     10.49618        -0.139508     -0.091905      0.022662
Li	      2.05375      6.32819      4.23517         0.017860      0.169099      0.027588
Li	      4.13508      6.29139      6.22217        -0.084514      0.074720      0.021173
Li	      6.11355      6.34722      8.45221         0.038277     -0.021677     -0.029163
Ti	      8.08707      4.42011      8.35610        -0.359544      0.171709     -0.631753
Mn	      6.09965      6.32469      4.21390        -0.091791     -0.105586     -0.153852
Mn	      2.06387      4.25612      6.24490        -0.091339      0.388047      0.179509
V	      4.13547      8.39161      8.37021        -0.063613      0.048133     -0.280922
V	      4.15165      4.17559      8.43578        -0.115629      0.008176      0.159045
Co	      8.01371      2.04099      6.22451         1.050013     -0.097290      0.046494
Co	      6.11447      4.22317      2.06270         0.211964     -0.096424      0.045573
Co	      8.28448     10.49659     10.55793         0.329896     -0.344961      0.126728
Ni	      4.14810      4.24409      4.25335         0.010704     -0.009966      0.022526
O	      2.13256      2.17688      2.07742        -0.178154     -0.022649      0.370558
O	      4.03817      4.08234      2.15564         0.202742     -0.136286     -0.040609
O	      4.00117      2.11791      4.05261        -0.185117     -0.081020     -0.060713
O	      6.22840      4.22374      4.19215         0.072201      0.539416     -0.631215
O	      6.24250      2.08662      6.30727        -0.435530     -0.000257      0.034156
O	      8.17914      4.15727      6.41036        -0.164366      0.068333      0.191155
O	      2.06339      4.25788      4.04537        -0.080834     -0.338051      0.084850
O	      4.23277      6.27080      4.17619         0.277447      0.073960      0.020546
O	      4.05104      4.23026      6.39709        -0.051818     -0.068480      0.049865
O	      6.17218      6.56013      6.17251         0.001562     -0.053374     -0.246661
O	      6.15708      4.24075      8.38585         0.463515      0.152139      0.073482
O	      8.20510      6.27982      8.38404        -0.039413     -0.186621      0.012209
O	      2.03777      6.26136      6.31694        -0.064453     -0.244117      0.608919
O	      4.07552      8.40250      6.48611        -0.036971     -0.004334      0.223315
O	      4.09311      6.34896      8.46218        -0.433304     -0.013282      0.059748
O	      6.12984      8.38713      8.44531        -0.036242      0.114345     -0.178889
O	      5.96335      6.31564     10.55721        -0.237451     -0.062222     -0.094670
O	      8.20326      8.43048     10.46430        -0.050165      0.169997     -0.252482
