# total energy = -229.58362059 eV
 
CRYSTAL
PRIMVEC
0.022978 6.242914 6.307466 
6.269573 0.008981 6.321638 
4.176901 4.168397 0.008898 
PRIMCOORD
36 1
Li	      4.21536      8.29737      8.45786         0.013509     -0.014731      0.010819
Li	      4.27046      6.29765     10.48166         0.005631      0.013518     -0.020883
Li	      4.19554      6.24840      2.36686        -0.011885     -0.013487      0.043584
Li	      6.14478      6.30273      4.20148        -0.011732     -0.013658     -0.012540
Li	      4.14979      4.24319      4.27097        -0.000094     -0.019367     -0.007360
Li	      4.17394      8.14582      4.26949        -0.006355      0.007537      0.017981
Li	      2.18209      6.26571      4.21727        -0.034881     -0.012936     -0.044274
Li	      2.05365      4.11761      6.17448        -0.056332     -0.005862     -0.016345
Li	      6.28224      6.27255      8.53009         0.013400      0.010033      0.011755
Ti	      2.13828      4.20135      2.25696         0.012142      0.124563      0.342692
Mn	      4.23674     10.27718      6.21919         0.020828     -0.025795     -0.007029
Mn	      6.26230      8.34193     10.48463         0.046826      0.038655     -0.118164
V	      2.09834      0.05472      2.16159        -0.002309      0.002371     -0.003194
V	      6.29366      4.27333      6.32717         0.032841      0.004586     -0.063217
Co	      8.39581      8.26809      8.49848        -0.088638     -0.002427     -0.013539
Co	      2.17330      8.29842      6.25535         0.009649     -0.070081     -0.077793
Co	      4.16933      2.13008      6.25685        -0.098293      0.024478      0.032703
Co	      4.14762      6.23856      6.26597         0.033287      0.077935     -0.020251
O	      2.09287      2.09673      2.09009        -0.029340     -0.041359     -0.028910
O	      4.25427      4.19699      2.04726        -0.040614      0.030829      0.116413
O	      4.33361      2.11393      4.27905         0.076015     -0.002581     -0.124162
O	      6.28027      4.11614      4.17688        -0.008905      0.038296      0.042991
O	      6.30759      2.27557      6.13600        -0.006705      0.075891     -0.019216
O	      8.28153      4.20441      6.38222        -0.084858     -0.149943      0.014144
O	      2.08368      4.15979      4.04706         0.016411     -0.017654     -0.344532
O	      4.15886      6.21578      4.38002        -0.023302     -0.032894      0.041573
O	      4.29092      4.21239      6.40882         0.067547      0.050445      0.000862
O	      6.17731      6.11443      6.28704         0.094849     -0.047145     -0.008104
O	      6.40324      4.13689      8.27038        -0.008282      0.015333      0.034934
O	      8.40205      6.12976      8.33558         0.030464     -0.128797      0.099077
O	      2.18684      6.18179      6.44075        -0.001919      0.122558      0.068152
O	      4.17909      8.17748      6.27549         0.097535     -0.087723      0.004755
O	      3.98480      6.23224      8.31311        -0.024464      0.049679     -0.024703
O	      6.24266      8.45389      8.57754         0.082302     -0.141238     -0.005664
O	      6.28433      6.45038     10.50616         0.003047      0.124147     -0.053180
O	      8.24870      8.36505     10.48871        -0.117374      0.016824      0.130624
