# total energy = -91.70617914 eV
 
CRYSTAL
PRIMVEC
-2.006968 4.116971 -2.006657 
1.950196 4.059941 1.949238 
1.986556 0.029199 -5.942063 
PRIMCOORD
16 1
Li	      0.02203      3.99027     -3.91572        -0.200300      0.011480     -0.554471
Li	      1.86983      5.96675     -3.86870         0.109713      0.436629     -0.505687
Li	      1.85712      3.99189     -5.74609         0.002511      0.074699     -0.487832
Li	     -0.00381      2.00228     -1.94574        -0.405489     -0.059877     -0.016201
Mn	      0.00082      0.00091     -0.00106        -0.773917     -3.131720      1.452926
Mn	     -0.00853      5.96314     -1.99463        -0.672416      2.424337      0.145798
Ni	      1.88274      3.96859     -1.93733         1.037920     -0.111582      0.838703
Ni	      1.87662      1.99660     -3.81985         0.556912     -1.375279     -0.690098
O	     -0.02565      4.06457     -5.90044        -0.122239      0.159176     -1.321226
O	      1.79790      5.89889     -1.94887         1.203017      1.281634      0.010095
O	      2.00940      3.92281     -3.86343         0.334030      1.142437     -1.095729
O	      1.88590      3.79235      0.03429         0.316352      0.356084      1.008582
O	      1.89088      2.03856     -1.85336         0.418777     -1.346874     -0.022628
O	     -0.03597      6.10412     -0.13000        -0.108361      0.898052      1.121714
O	     -0.08982      4.14018     -1.94607        -0.862936     -1.181933     -0.306570
O	      0.07322      1.82921     -0.01673        -0.833575      0.422736      0.422624
