# total energy = -219.57691088 eV
 
CRYSTAL
PRIMVEC
0.041192 6.201470 6.274745 
6.368316 0.028255 6.286139 
4.273951 4.168642 -0.008155 
PRIMCOORD
36 1
Li	      4.26834      4.17521      0.20569        -0.021598      0.001900      0.008107
Li	      2.09150      2.20292      0.24371        -0.036339     -0.049033     -0.004695
Li	      1.99438      0.15007      2.09407        -0.011333     -0.023247     -0.018146
Li	      4.18463      0.03698      4.14256        -0.042396     -0.018703      0.011882
Li	      0.19480      1.98611      2.06997         0.005004      0.029423     -0.012048
Li	      2.26013      3.96648      2.12042        -0.001157      0.019350     -0.011525
Li	      2.08776      2.04388      4.04928         0.005349      0.004296      0.043425
Li	      6.44649      4.07802      6.35011         0.047011      0.024567      0.001187
Li	      6.37201      6.19194      8.35974         0.026084      0.012234     -0.036633
Ti	      8.56095      6.04864      6.31528        -0.092780     -0.403001      0.048747
Mn	      8.54014      6.26607     10.42787         0.080584     -0.077682     -0.012001
Mn	      4.34319      4.21913      8.32068        -0.001509     -0.001796     -0.025195
V	      6.35659      2.15123      4.18105         0.098663      0.081238      0.038852
V	      6.36622      8.37605      6.33827         0.028906     -0.050974     -0.046246
Cu	      4.30108      6.25469      6.30201        -0.002536      0.080497     -0.034763
Ni	      4.10381      2.11953      2.10489         0.129572     -0.117524     -0.020124
Ni	      6.40416      4.21417     10.43398        -0.003869      0.019931     -0.015525
Ni	      4.27934      4.18929      4.10094         0.049140     -0.042075      0.152686
O	      2.15287      2.06067      2.13364        -0.248838     -0.025142      0.033619
O	      4.24770      4.10079      2.16632         0.023432      0.141750     -0.202435
O	      4.40212      2.06975      4.23599        -0.027377     -0.052695      0.080698
O	      6.39845      3.95545      4.18889        -0.003458      0.001643     -0.023569
O	      6.25562      2.06998      6.13133        -0.072878      0.006648      0.020023
O	      8.47276      4.25724      6.28076         0.049238      0.372484      0.009395
O	      2.13143      4.28979      4.27303        -0.032483      0.029783     -0.044528
O	      4.13352      6.25441      4.30463        -0.060785     -0.025257     -0.003588
O	      4.21968      4.21392      6.36444         0.060637     -0.098575     -0.047789
O	      6.64222      6.46850      6.13771         0.286355     -0.124925      0.011541
O	      6.20948      4.18525      8.40600        -0.068613      0.032989     -0.122700
O	      8.56977      6.40517      8.20324         0.002471      0.024727     -0.058436
O	      2.05453      6.00319      6.30405        -0.106073      0.137608      0.021441
O	      4.40504      8.22595      6.26040        -0.090050      0.050534      0.004912
O	      4.31989      6.14161      8.29329         0.004407     -0.066656      0.088359
O	      6.54016      8.28628      8.33174         0.114069      0.007295      0.126934
O	      6.58153      6.36698     10.39394        -0.043071      0.048519     -0.018176
O	      8.50714      8.25963     10.28105        -0.043778      0.049871      0.056315
