# total energy = -219.72538228 eV
 
CRYSTAL
PRIMVEC
-0.020431 6.240303 6.431653 
6.217041 0.000683 6.411061 
4.121074 4.123218 0.024355 
PRIMCOORD
36 1
Li	      4.16514      6.24651     10.74024        -0.039032     -0.000095     -0.019798
Li	      6.19448      8.22331     10.74304         0.003675      0.041329     -0.003303
Li	      4.10963      6.28410      2.26152         0.003133      0.029911      0.015791
Li	      8.20131      4.16493      8.65653         0.011170      0.014057      0.005889
Li	      1.95220      2.24264      4.27701        -0.012698     -0.013424      0.003638
Li	      0.03785      4.09721      4.20137        -0.012640      0.018857      0.000664
Li	      2.00104      4.19469      6.32502        -0.059826      0.003470      0.006517
Li	      4.16753      6.17964      6.31631         0.020159     -0.019990      0.005484
Li	      4.24065      4.12390      8.58032         0.015903      0.024410      0.002600
Ti	      4.13978      2.17067      6.41220        -0.063670      0.191725     -0.089301
Mn	      2.10076      6.17023      4.24112        -0.017141      0.051761      0.010585
Mn	      6.19569      6.20439      8.61136         0.023708      0.053658      0.052660
V	      2.09516      8.25503      6.37221        -0.055679     -0.052615      0.024740
V	      6.23387      4.04950      2.29985         0.039368     -0.009250     -0.072838
Cu	      4.09566      2.06003      2.23583         0.008227     -0.061506      0.006004
Cu	      6.23714      4.13580      6.50405         0.003823     -0.034985     -0.023447
Ni	     10.28600     10.35308     12.84135         0.053348      0.025174     -0.047632
Ni	      4.07959      4.15962      4.29872         0.017939     -0.022105     -0.029297
O	      2.06785      1.89875      2.04542        -0.062542     -0.006336     -0.054849
O	      4.26558      4.04000      2.11305         0.038320      0.001246     -0.005964
O	      4.11306      2.07869      4.49674         0.026550     -0.086670      0.322542
O	      6.15689      4.14424      4.05878         0.050271     -0.002623     -0.007110
O	      6.26663      2.01873      6.41565        -0.012882      0.005096      0.006675
O	      8.21697      4.09393      6.39585         0.093329      0.019754      0.029290
O	      2.08119      4.24246      4.30093        -0.150592      0.071249     -0.007914
O	      4.03318      6.17693      4.29998        -0.068753      0.137793     -0.051043
O	      4.28285      4.08294      6.39154        -0.103555     -0.201980      0.062537
O	      6.29471      6.28532      6.60356         0.122839      0.056641      0.027237
O	      6.18357      4.32104      8.59073        -0.012729      0.068286      0.068019
O	      8.33412      6.23439      8.39946        -0.020815      0.022816     -0.119042
O	      1.99119      6.29311      6.57145         0.035735      0.052705     -0.047072
O	      3.90307      8.34127      6.40134         0.007234     -0.111093     -0.011626
O	      3.93599      6.27629      8.56180        -0.001465     -0.065754     -0.016289
O	      6.12104      8.38378      8.57603         0.013808     -0.147719     -0.010147
O	      6.29099      6.22778     10.58166         0.081514     -0.008051     -0.043297
O	      8.22689      8.15553     10.86927         0.023964     -0.045743      0.009095
