# total energy = -218.85497764 eV
 
CRYSTAL
PRIMVEC
-0.000008 6.329980 6.302405 
6.173742 0.019043 6.284005 
4.124017 4.215729 0.004582 
PRIMCOORD
36 1
Li	      6.18400      6.41868     12.51335         0.069249      0.005562     -0.081453
Li	      4.22129      6.32335     10.45972         0.048131     -0.048732     -0.025576
Li	      6.20678      8.33941     10.45688         0.035428     -0.062571      0.032686
Li	      6.16910      2.14993      8.30498         0.039949      0.068030      0.035278
Li	      6.16276      4.14948      6.33861        -0.033770      0.021092      0.010847
Li	      6.12455      4.31032     10.46539        -0.034258     -0.023312     -0.020086
Li	      6.17344      8.43028      6.41842        -0.029288      0.007513     -0.018602
Li	      8.19336      8.45215      8.43369         0.038500      0.009375      0.041813
Li	      6.16265      6.41554      8.47007        -0.016000     -0.034236     -0.039975
Ti	      8.09733      4.31910      8.32279        -0.779197      0.118661     -0.045732
Mn	      8.16670      2.15710      6.25390         0.055722     -0.075049     -0.000993
Mn	      8.17843      6.38173     10.46042         0.146485      0.152902     -0.065448
V	      6.18651      6.22348      4.24777        -0.208152      0.128696      0.041366
V	      4.11592      6.27915      6.32363        -0.000231      0.022177     -0.370102
Cu	      6.15472     10.39936      8.39336         0.024323      0.130690     -0.051918
Cu	      4.14005      4.20828      4.17034         0.071149      0.030016      0.168570
Cu	      4.22322      2.12640      6.29301         0.062978      0.065964      0.221522
Ni	      4.17390      8.41525      8.41490        -0.162646     -0.246395      0.018613
O	      6.14390      8.47681      8.40613         0.073135     -0.107880      0.055364
O	      2.08954      2.21514      2.18927        -0.109817      0.125268     -0.017008
O	      4.16730      4.15336      2.20728         0.075718      0.114172     -0.082401
O	      3.97055      2.02949      4.32083         0.163601     -0.025943     -0.216440
O	      6.14838      4.44798      4.24983         0.004127     -0.173177      0.160636
O	      6.30687      2.15879      6.28913        -0.140191     -0.093645     -0.051713
O	      8.30781      4.22637      6.39957         0.015932     -0.083493      0.057022
O	      2.11725      4.26273      4.07350        -0.033752      0.045137     -0.118791
O	      4.13055      6.47004      4.30154        -0.008071      0.054098     -0.070727
O	      4.12245      4.40685      6.20703        -0.025470     -0.155577      0.043316
O	      6.04791      6.45123      6.15948         0.071565      0.048941      0.165946
O	      6.29172      4.26969      8.36226         0.697632      0.033613     -0.052322
O	      8.28970      6.26649      8.42590         0.004636     -0.150411      0.129569
O	      2.10721      6.29389      6.09942        -0.214956      0.041817     -0.009049
O	      3.95216      8.23964      6.36269         0.136160      0.154592     -0.054362
O	      4.00867      6.32095      8.27432         0.082514     -0.090076      0.383522
O	      6.35266      6.30460     10.48267        -0.080025      0.014832     -0.030464
O	      8.22940      8.28173     10.54030        -0.041111     -0.022651     -0.142905
