# total energy = -225.68367030 eV
 
CRYSTAL
PRIMVEC
0.001594 6.309071 6.390958 
6.205543 0.013940 6.378407 
4.141255 4.202312 0.004970 
PRIMCOORD
36 1
Li	      6.26513      6.34065     12.72130         0.039348     -0.014589     -0.054453
Li	      2.07090      2.05900      0.06854         0.010663     -0.013392      0.099696
Li	      2.05873      6.34262      8.47036         0.061236     -0.025211     -0.019232
Li	      4.20569      6.30580     10.69910         0.095232     -0.028946      0.058537
Li	      6.26197      2.17967      8.38318         0.039521      0.085502     -0.082793
Li	      1.98233      4.12015      2.18009        -0.140064     -0.049762     -0.061497
Li	      6.22193      4.17364      6.39890         0.010893      0.006904      0.068872
Li	      6.21313      4.32718     10.68077        -0.035824      0.130444     -0.012277
Li	      6.24423      6.31574      8.60722         0.012093      0.017154      0.045503
Ti	      4.26858      4.29014      8.54677         0.257457      0.128855      0.235110
Mn	      4.14118      8.37957      8.44100         0.109361     -0.494718     -0.297839
Mn	      6.15458      6.28233      4.20687        -0.166126     -0.163911     -0.255153
V	      8.30559      6.10916      6.44867        -0.070637      0.036247      0.221680
V	      4.10350      4.21393      4.14838         0.102281      0.109077     -0.884884
Fe	      6.27637      8.34900     10.67577         0.060143      0.165843     -0.055462
Co	      4.12504      6.30713      6.35894         0.024195      0.092506      0.203128
Cu	      2.04984      6.30543      4.33687        -0.196931      0.031750     -0.152374
Cu	      6.15166      8.44209      6.40179        -0.176919      0.087109      0.189532
O	      2.13247      2.05805      2.24473        -0.532824     -0.016625      0.240705
O	      4.13673      4.08428      2.31047        -0.126150      0.931361      1.045237
O	      4.22465      2.15217      4.42197        -0.054861      0.415719      0.094485
O	      6.06889      4.28845      4.32122        -0.166005     -0.174299      0.075317
O	      6.08929      2.13639      6.33551         0.078878      0.011548      0.038425
O	      8.26706      4.37129      6.43645         0.017921     -0.122118     -0.046741
O	      2.14228      4.02509      4.17877         0.163068      0.064052     -0.192371
O	      4.00895      6.22279      4.38590         0.179154     -0.471083      0.047406
O	      4.01469      4.27241      6.39799         0.248599     -0.030671     -0.361357
O	      6.21603      6.32759      6.22473        -0.038564     -0.057071     -0.044317
O	      6.08245      4.24103      8.50720        -0.272658      0.001302      0.012577
O	      8.26470      6.50181      8.34880         0.027760     -0.010989     -0.115683
O	      2.20749      6.30241      6.34572         0.045190     -0.021455      0.162905
O	      4.21035      8.24314      6.34176        -0.181723     -0.152565     -0.200102
O	      4.16074      6.26466      8.30163        -0.024736     -0.513190     -0.153015
O	      6.18370      8.43030      8.68012         0.554848      0.075476      0.200489
O	      6.31885      6.41250     10.69522        -0.175127     -0.163639      0.006930
O	      8.23265      8.59293     10.45979         0.221308      0.133385     -0.056984
