# total energy = -223.06801810 eV
 
CRYSTAL
PRIMVEC
0.051042 6.046792 6.346754 
6.384374 0.010570 6.387754 
4.247127 4.049951 0.015850 
PRIMCOORD
36 1
Li	      6.39411      6.03878     12.64629        -0.025983      0.044926     -0.066899
Li	      6.42516      4.04670      2.30035        -0.030765     -0.037790     -0.003464
Li	      4.25626      6.03288     10.52300        -0.041157      0.041638     -0.016204
Li	      4.27012      6.07202      2.23483         0.028808     -0.019860      0.019851
Li	      6.29481      5.92790      4.30653        -0.003725      0.045235      0.043604
Li	      6.37674      4.10164      6.24283         0.038860      0.001140     -0.077098
Li	      8.54468      6.10009     10.61138         0.039179     -0.018017      0.007269
Li	      4.31942      6.04442      6.34740        -0.032157     -0.015870     -0.040941
Li	      6.33630      6.04335      8.57275         0.005860      0.044565      0.002827
Ti	      8.42103      7.96558     12.72137        -0.212095     -0.298633      0.137100
Mn	      4.28606      7.98932      8.48869        -0.063375      0.196711      0.088845
Mn	      6.43007      4.06555     10.62142         0.116103     -0.032402     -0.017684
V	      8.47434      6.04255      6.34119        -0.000393      0.077599      0.034212
V	      2.13679      4.07829      6.36649        -0.230998      0.019222      0.020660
Fe	      8.52751      4.09455      8.54040         0.039312     -0.081738      0.200222
Cu	      4.38599      4.11406      8.43780        -0.007148      0.132546      0.063337
Ni	      6.47250      8.05441     10.56259         0.018829     -0.052910     -0.113024
Ni	      4.37047      4.14667      4.26613        -0.052978      0.013303     -0.055039
O	      2.24671      2.03867      1.95682        -0.131876     -0.066735     -0.115347
O	      4.10904      3.91396      2.26627         0.094838      0.010964     -0.101256
O	      4.35901      2.02866      4.46259        -0.078854     -0.119503      0.061748
O	      6.34475      3.98974      4.26210         0.187044      0.138271     -0.024736
O	      6.48509      2.01170      6.34878         0.227741      0.015368      0.046381
O	      8.47667      4.06760      6.52180         0.046647     -0.124786     -0.131691
O	      2.04723      4.06811      4.30453        -0.026704     -0.021270     -0.085716
O	      4.28120      6.15908      4.24214        -0.001173      0.193364      0.046848
O	      4.20360      4.01327      6.39464         0.185748     -0.033374     -0.006090
O	      6.57207      6.15265      6.34995        -0.020296     -0.047799      0.030984
O	      6.57294      4.05336      8.70103        -0.096496      0.002875      0.034064
O	      8.62832      6.13442      8.27731         0.020210      0.042335     -0.060484
O	      2.12721      6.09496      6.36020        -0.024022      0.395670     -0.053489
O	      4.24049      8.08089      6.23158        -0.078135     -0.007197     -0.022904
O	      4.28197      6.07623      8.46667         0.086207     -0.278032     -0.058416
O	      6.22884      8.08292      8.36585        -0.052662     -0.044241      0.185227
O	      6.44828      5.99789     10.60289        -0.002660     -0.138225      0.006199
O	      8.65729      8.09851     10.72095         0.078268      0.022646      0.021106
