# total energy = -92.18718467 eV
 
CRYSTAL
PRIMVEC
-2.017313 4.138193 -2.017001 
1.960249 4.080868 1.959285 
1.996796 0.029350 -5.972692 
PRIMCOORD
16 1
Li	      0.02226      4.03151     -3.95620        -0.159241      0.015161     -0.458244
Li	      1.88915      6.02842     -3.90868         0.088747      0.354089     -0.410644
Li	      1.87632      4.03315     -5.80548        -0.007805      0.063471     -0.392705
Li	     -0.00385      2.02297     -1.96585        -0.325923     -0.051228     -0.003347
Mn	      0.00083      0.00092     -0.00107        -0.606690     -2.595827      1.255914
Mn	     -0.00862      6.02478     -2.01525        -0.518282      1.954980      0.142245
Ni	      1.90221      4.00961     -1.95736         0.818760     -0.088506      0.684683
Ni	      1.89602      2.01723     -3.85933         0.456483     -1.093895     -0.527087
O	     -0.02592      4.10658     -5.96143        -0.059711      0.120680     -1.163404
O	      1.81648      5.95986     -1.96901         0.904734      1.053450      0.003579
O	      2.03017      3.96336     -3.90336         0.270387      0.935909     -0.910245
O	      1.90539      3.83155      0.03465         0.264409      0.289978      0.852620
O	      1.91043      2.05962     -1.87251         0.332951     -1.118281     -0.015556
O	     -0.03634      6.16721     -0.13135        -0.072431      0.786257      0.874882
O	     -0.09075      4.18297     -1.96618        -0.714737     -0.912785     -0.259838
O	      0.07397      1.84812     -0.01690        -0.671652      0.286546      0.327145
