# total energy = -222.82164429 eV
 
CRYSTAL
PRIMVEC
0.004160 6.234927 6.432167 
6.364207 0.004815 6.431253 
4.258223 4.171617 -0.012135 
PRIMCOORD
36 1
Li	      2.17403      0.04863      2.17030         0.005512     -0.000275      0.026295
Li	     10.43155      6.23083      8.54481         0.050750     -0.033522      0.017083
Li	      8.46255      4.27846      8.51262        -0.007590     -0.046386      0.010578
Li	      6.37238      6.28057      4.46515         0.080517      0.019393      0.020891
Li	      4.26709      4.21436      4.55565        -0.059889      0.092177     -0.033132
Li	      8.36115      6.39631      6.59421         0.041779      0.009353      0.008643
Li	      4.42280      6.16042      6.40107        -0.038960      0.078670     -0.017689
Li	      8.51888      8.18750      8.46868        -0.021094      0.077678     -0.026893
Li	      6.53803      6.24718      8.43329        -0.053169      0.011431      0.031238
Ti	      0.13742      3.96267      4.03507         0.186959     -0.128069     -0.099891
Mn	      4.20923      2.06379      2.19694        -0.026777     -0.126661     -0.003505
Mn	      8.42289      4.22977      4.33398         0.073972     -0.043679      0.080619
V	      4.28207     10.37466      6.44144        -0.094990      0.046033     -0.035545
V	      6.29159      2.15455      4.25349         0.051917     -0.098118      0.069570
Fe	      2.17175      8.24000      6.42191        -0.047995     -0.030487     -0.093594
Cu	      8.54767      6.17367     10.51717        -0.034793     -0.015690      0.154007
Cu	      2.28408      4.09165      6.38390        -0.080592      0.055459      0.058417
Ni	      6.25747      4.30015      6.56984         0.086343     -0.095084      0.057941
O	      8.49734      6.23116      8.62053         0.007486      0.022899     -0.260403
O	      2.31691      2.03787      1.90741         0.006789     -0.014719      0.139789
O	      4.28763      4.04612      1.80814         0.002048      0.064205     -0.009810
O	      4.38731      2.21771      4.37520        -0.088691      0.038348     -0.011154
O	      6.45879      4.07114      4.48371        -0.026947      0.064492     -0.080910
O	      6.48997      1.97851      6.31606        -0.056140     -0.067327      0.019649
O	      8.56195      4.07514      6.31892         0.007945      0.011367     -0.037358
O	      1.98266      4.19182      4.14478        -0.225388     -0.125131     -0.111266
O	      4.37754      6.33210      4.18705         0.139140      0.206894     -0.016037
O	      4.22896      4.24128      6.52011         0.046475      0.006506      0.002398
O	      6.38295      6.32266      6.46829         0.030039     -0.008661      0.002166
O	      6.32822      4.17346      8.63093         0.021185     -0.058051      0.188971
O	      1.98564      6.17284      6.22631         0.029132     -0.012070      0.050773
O	      4.22136      8.38336      6.19472         0.037896      0.038247     -0.028950
O	      4.16606      6.40732      8.85840         0.027652      0.020261     -0.098676
O	      6.24099      8.35101      8.87835        -0.005630      0.008518     -0.028675
O	      6.15681      6.30899     10.86925        -0.094321     -0.049689      0.073074
O	      8.43809      8.24931     10.76511         0.029433      0.081688     -0.018615
