# total energy = -225.95833843 eV
 
CRYSTAL
PRIMVEC
0.007770 6.395852 6.419501 
6.276545 -0.017074 6.444578 
4.172821 4.268797 0.000474 
PRIMCOORD
36 1
Li	      1.99204      0.01730      2.02388         0.064015     -0.093677      0.015113
Li	      4.11156      2.23001      2.05854         0.048387     -0.072681     -0.026561
Li	      4.20289      6.32711      2.35240         0.000816     -0.001958     -0.061257
Li	      4.06852      4.45708      4.21732         0.186513     -0.082206     -0.018592
Li	      4.30746      8.38061      4.32429        -0.055657     -0.009898     -0.035553
Li	      2.31963      6.20121      4.37948        -0.025357      0.098281     -0.044497
Li	      1.99861      4.34101      6.26121         0.014080     -0.039104      0.113576
Li	      4.15758      6.42101      6.22533         0.094884     -0.027651      0.105178
Li	      8.42013      8.46800      8.61764        -0.043791      0.053837      0.038560
Ti	      4.13361      6.35286     10.58154        -0.073811     -0.125493     -0.444146
Mn	      4.18854     10.61390      6.47224         0.020863     -0.033076     -0.210631
Mn	      6.29957      4.29252      6.49375         0.017223      0.075001     -0.084505
V	      6.21656      2.14152      4.22958        -0.007445     -0.059153     -0.008909
V	      4.14769      2.27548      6.49768        -0.152061     -0.010438      0.114641
Fe	      2.20200      8.32525      6.50642        -0.036999      0.117029     -0.179599
Fe	      6.34042      6.38702      8.61081        -0.053378      0.268900      0.051882
Cu	      2.11637      4.20375      2.27032         0.019968      0.030841     -0.034687
Cu	      1.98868      2.26641      4.19492         0.148947     -0.085689     -0.017559
O	      2.04436      2.07264      1.94348         0.002226     -0.038562      0.145378
O	      4.06174      4.24929      1.97573         0.028017     -0.024343      0.077923
O	      4.14745      1.99174      4.41731         0.027174      0.003501      0.037569
O	      6.33747      4.19197      4.40043         0.059258      0.122444      0.034889
O	      6.20253      1.99169      6.30295         0.004522      0.036074      0.116353
O	      8.31225      4.41366      6.33243        -0.084479     -0.039381     -0.030173
O	      2.12584      4.21947      4.27462         0.025644     -0.003689      0.020108
O	      4.26832      6.39849      4.30286        -0.151597     -0.008106     -0.021655
O	      4.31509      4.06356      6.41824        -0.031183      0.102688     -0.001417
O	      6.37871      6.44633      6.60955        -0.000040     -0.001660     -0.066932
O	      6.39383      4.38701      8.52679        -0.068691     -0.198190      0.069194
O	      8.33565      6.46214      8.42567         0.092414      0.012200     -0.013234
O	      2.11548      6.41773      6.39110        -0.011800     -0.154482     -0.045554
O	      4.12193      8.68371      6.40470         0.070550     -0.005782     -0.051933
O	      4.28120      6.32703      8.74584        -0.105306      0.021011      0.500059
O	      6.27701      8.41275      8.77990        -0.042712      0.074976     -0.085760
O	      6.14965      6.44860     10.76922        -0.087742     -0.081640      0.112660
O	      8.23201      8.69332     10.88979         0.106548      0.180078     -0.069929
