# total energy = -219.57424333 eV
 
CRYSTAL
PRIMVEC
-0.013451 6.395132 6.320643 
6.018570 0.040938 6.268255 
4.034653 4.249186 0.005886 
PRIMCOORD
36 1
Li	      8.02384      2.17198      6.26968        -0.020445     -0.014261      0.028417
Li	      8.01956      4.30545      4.30178        -0.045863      0.013566     -0.030251
Li	      8.00749      4.42397      8.27575         0.034935     -0.030176      0.009413
Li	      6.04919      6.40652      4.36582         0.009534      0.006078     -0.051148
Li	      3.98113      4.23811      4.39299         0.020518     -0.073957     -0.033939
Li	      7.97487      6.47781      6.33446         0.001648      0.055190     -0.051826
Li	      2.03762      6.37951      4.21418         0.055739     -0.010932      0.021294
Li	      2.12711      4.23673      6.29509         0.029632     -0.013447     -0.013827
Li	      4.01699      4.20137      8.20816        -0.010351      0.001964      0.027977
Ti	      3.89798      2.09127      2.18500        -0.139569     -0.150930      0.361453
Mn	      9.99719     10.65240     12.57178        -0.039999     -0.005167      0.063097
Mn	     10.00675      6.42982      8.39481         0.014272      0.010730      0.041561
V	      6.16834      8.58667     10.51460        -0.139547      0.048077      0.044417
V	      0.13038      4.27566      4.18590         0.328503     -0.090628      0.073221
Ni	      6.03697     10.60352      8.40207         0.051076      0.012272      0.091734
Ni	      6.04752      4.36343      6.25439         0.035223     -0.114127      0.020111
Ni	      3.98220      6.31894      6.24779        -0.054185      0.111617     -0.085792
Ni	      6.09092      6.41737      8.29679         0.162012      0.042766      0.154102
O	      1.97609      2.06701      2.14849         0.293663      0.121176     -0.035143
O	      4.01159      4.12331      1.93087        -0.166022     -0.023417      0.021934
O	      4.11031      2.14817      4.04539         0.001031     -0.057321     -0.329632
O	      6.03688      4.08509      4.17301         0.003409     -0.009719     -0.001698
O	      6.01255      2.02652      6.22923         0.002319     -0.074233     -0.137215
O	      8.10557      4.26913      6.27451         0.082415     -0.017540     -0.026083
O	      1.86936      4.29776      4.23085        -0.121780      0.002454     -0.018142
O	      4.00191      6.59160      4.14417         0.017379     -0.000175      0.059626
O	      4.06909      4.33323      6.27961        -0.167553     -0.143526      0.040754
O	      5.99927      6.37180      6.30620         0.161323      0.123415      0.036803
O	      6.00883      4.36326      8.51502        -0.005154     -0.002507     -0.007431
O	      8.14809      6.41499      8.41047        -0.224791      0.032357     -0.101090
O	      1.90574      6.37915      6.37153        -0.123870      0.022789     -0.173089
O	      3.98384      8.63090      6.27271        -0.011741      0.050733      0.027190
O	      4.02821      6.58907      8.31179        -0.023562      0.294274      0.091645
O	      5.96364      8.51149      8.52524        -0.053649     -0.099028      0.024482
O	      5.99797      6.41405     10.60766         0.003718      0.030714     -0.152099
O	      7.96148      8.55228     10.49544         0.039735     -0.049083      0.009172
