# total energy = -225.88875780 eV
 
CRYSTAL
PRIMVEC
0.028527 6.222501 6.446810 
6.170302 0.023533 6.451635 
4.130596 4.168304 -0.001439 
PRIMCOORD
36 1
Li	      6.22104      6.24029     12.80545         0.013548     -0.100158      0.042781
Li	      8.17761      4.24878      8.60685        -0.051688      0.085147      0.018976
Li	      6.17650      6.26591      4.42776         0.073623      0.117455     -0.011165
Li	      8.12155      6.14183      6.53726        -0.044022     -0.022980     -0.032990
Li	      6.19468      4.27633      6.45408        -0.021644      0.013392      0.179574
Li	      6.31715      4.28647     10.65716         0.004804      0.006860      0.006540
Li	      8.17546      6.20906     10.75050         0.011738     -0.021512     -0.145231
Li	      6.17772      8.26148      6.37157        -0.107989     -0.030175     -0.006049
Li	      6.25977      6.18162      8.55699         0.023603     -0.074762     -0.020089
Ti	      8.23761      2.20694      6.41954         0.488274      0.428147     -0.092356
Ti	      4.01467      4.23693      4.38762        -0.803416     -0.164524     -0.044244
Mn	      4.12745      4.14601      8.55748        -0.022130      0.026763      0.045482
Fe	      4.17294      8.31513      8.59337         0.024814     -0.264447      0.036097
Fe	      6.19604      8.21973     10.77922        -0.204631     -0.295027      0.129617
Fe	      6.15806      2.13939      8.58697        -0.054706      0.004885      0.017876
Co	      4.20528      6.26708      6.41003         0.130891      0.247424      0.015507
Co	      6.18730      4.18249      2.16412         0.224577     -0.144382      0.005434
Ni	      8.23367      4.19655      4.35854         0.154934      0.159030     -0.074950
O	      2.09128      2.15756      2.01005        -1.276430     -1.470987      0.060314
O	      4.21027      4.13658      2.23519         1.033391      1.355499      0.028231
O	      4.14019      2.14278      4.20057         0.135863      0.233746      0.877220
O	      6.14069      4.05732      4.23952         0.056195      0.241884     -1.015822
O	      6.30862      2.04124      6.49737         0.058948      0.042715     -0.170135
O	      8.25797      4.08292      6.43033        -0.041762     -0.165011      0.126492
O	      2.18955      4.16607      4.26396         0.410675      0.055877      0.008934
O	      4.17389      6.12789      4.15110         0.032418     -0.168370      0.151173
O	      4.11636      4.26612      6.30822         0.073267      0.124154     -0.170169
O	      6.02816      6.24886      6.43100        -0.061222     -0.042614     -0.003421
O	      6.05815      4.11217      8.60751         0.148611      0.113463     -0.041513
O	      8.32027      6.37844      8.52358        -0.099604     -0.203566     -0.034936
O	      2.27533      6.33452      6.52206        -0.174263     -0.246075      0.991656
O	      4.13226      8.23125      6.58749        -0.310185     -0.282671     -0.909977
O	      4.06697      6.20038      8.67607        -1.014443     -0.938541     -0.088718
O	      6.24033      8.25987      8.69633         1.141729      1.604834     -0.033751
O	      6.16551      6.31316     10.79133         0.132827     -0.085116     -0.022264
O	      8.23555      8.33369     10.90407        -0.086594     -0.140356      0.175875
