# total energy = -229.23020813 eV
 
CRYSTAL
PRIMVEC
-0.003282 6.176868 6.154913 
6.444607 -0.007770 6.158918 
4.291685 4.115250 -0.000231 
PRIMCOORD
36 1
Li	     10.67092      4.11671      6.19634        -0.055020     -0.008794     -0.025073
Li	      2.09869      0.03288      2.03705        -0.008015      0.017358      0.005039
Li	      8.57064      4.12179      8.13726        -0.040420      0.019644     -0.044410
Li	      4.24822      4.12451      4.10048        -0.043467     -0.024330      0.053716
Li	      8.50490      6.18260      6.23740        -0.074262      0.020380     -0.001058
Li	      6.48255      4.12404      6.21621         0.041324      0.022377      0.002557
Li	      0.07686      4.14117      4.05370         0.046907      0.026591     -0.035380
Li	      4.37524      4.06568      8.13329         0.086790     -0.058125      0.027063
Li	      6.48129      6.06712      8.18379         0.008206     -0.094772     -0.001167
Ti	      6.46365      8.25517     10.19003         0.190869      0.076558     -0.066820
Ti	     10.66669      6.23072      8.22638        -0.268790      0.469574     -0.145155
Mn	      4.23371      2.16541      2.05271        -0.029850     -0.120497     -0.044214
Fe	      8.63670     10.27491     10.30197        -0.019770     -0.102546     -0.174236
Fe	      2.24425      4.12507      6.16857        -0.019014     -0.016372      0.116370
Fe	      4.31579      6.14539      6.16592         0.071818      0.020091      0.046448
Co	      6.43791      6.14226      4.08830        -0.049982      0.092309      0.068081
Co	      8.56335      6.09502     10.18941        -0.061943     -0.091898      0.061611
Co	      8.56378      2.04770      6.17399        -0.048070     -0.029593      0.038314
O	      2.01902      2.04545      1.96699        -0.048576     -0.021062     -0.020021
O	      4.28043      4.06646      2.05650         0.019346      0.146291      0.040623
O	      4.41409      2.03769      4.09289         0.041295      0.091259     -0.022628
O	      6.55563      4.04162      4.11909         0.005143     -0.109946      0.009885
O	      6.60248      2.02694      6.15671        -0.025166      0.003786     -0.011169
O	      8.59329      3.96701      6.07426         0.010362      0.016988      0.096355
O	      2.10066      4.08424      4.22897        -0.024425     -0.031468     -0.109866
O	      4.32383      6.14265      4.04948        -0.018282      0.034449      0.008660
O	      4.18925      4.19891      6.19526         0.083939     -0.083548     -0.094128
O	      6.34277      6.24733      6.16296        -0.021034     -0.047981      0.009310
O	      6.41191      3.97566      8.22069        -0.008945     -0.554057      0.009692
O	      8.74756      6.13161      8.17904         0.339730      0.052362     -0.032694
O	      2.23367      6.20270      6.11124        -0.005209      0.120412      0.035831
O	      4.15530      8.20288      6.22866         0.006407      0.040240      0.016094
O	      4.28557      6.36519      8.22622        -0.010140      0.020502      0.046477
O	      6.48505      8.26990      8.28509        -0.037725      0.009982      0.137016
O	      6.37684      6.29332     10.23983         0.087364      0.097520     -0.020040
O	      8.48002      8.22578     10.36094        -0.121392     -0.003686      0.018915
