# total energy = -227.59751252 eV
 
CRYSTAL
PRIMVEC
-0.016463 6.425136 6.315110 
6.337046 0.012664 6.286421 
4.225495 4.264954 0.007444 
PRIMCOORD
36 1
Li	      6.31072      2.17836      4.20569         0.016882      0.036364      0.027768
Li	     10.50270      6.43098      8.45660        -0.040920     -0.016356      0.024672
Li	      8.39168      4.37469      8.45923        -0.010292      0.030777      0.004479
Li	      6.30496      6.42783      4.36944         0.017850     -0.017244     -0.079102
Li	      4.19901      4.29868      4.32451         0.012223      0.008520      0.016404
Li	      8.32068      6.50626      6.29002         0.076782      0.027846     -0.025202
Li	      6.25595      4.47101      6.33778         0.095868     -0.012847     -0.000815
Li	      4.41067      6.29778      6.21614        -0.048367     -0.018270     -0.012072
Li	      6.40677      6.34924      8.23637         0.030469     -0.033039      0.045938
Ti	      8.33247      2.21460      6.33754        -0.093394      0.088128      0.090096
Ti	      4.16349      0.16278      4.14814        -0.122749      0.019678      0.039714
Mn	      2.10298      6.37801      4.18716        -0.008878      0.032588     -0.002890
Fe	      4.19589      4.27897      0.05233        -0.076768     -0.031278     -0.076050
Fe	      6.28850      4.22506      2.15049         0.072385      0.055107     -0.100595
Fe	      0.04716      4.18921      4.14361        -0.137726      0.062276      0.185954
Fe	      4.28935      4.22588      8.23357        -0.053671      0.020110      0.244981
Co	      4.27084      8.53579      8.40279        -0.037671      0.051024     -0.125379
Cu	      6.42529      8.35629      6.25157        -0.014884      0.123509      0.036638
O	      2.18018      1.99995      1.93230        -0.073908      0.041151     -0.064616
O	      4.31266      4.24589      2.02911        -0.119293     -0.088246      0.133143
O	      4.29896      1.98861      4.16454         0.026849     -0.140051      0.057606
O	      6.48761      4.29956      4.12900         0.163888      0.008190      0.030101
O	      6.47327      2.03844      6.27676         0.107743      0.052233      0.021312
O	      8.46745      4.18394      6.21549        -0.018255     -0.039318     -0.061363
O	      1.99648      4.22825      4.25464         0.133373      0.006061     -0.036618
O	      4.04710      6.49170      4.23077        -0.017498     -0.129702      0.011944
O	      4.32078      4.27035      6.37010         0.164055      0.068707     -0.271921
O	      6.34035      6.46154      6.30966        -0.008821     -0.214707      0.000891
O	      6.25977      4.30571      8.48877         0.115037     -0.012743     -0.089460
O	      8.41399      6.52699      8.56935        -0.007389     -0.130968     -0.017116
O	      2.02667      6.50734      6.22771        -0.005042      0.132260      0.079999
O	      4.03943      8.66467      6.29658        -0.182422      0.018801     -0.083886
O	      4.15018      6.34497      8.53334         0.039619      0.083345      0.020951
O	      6.36366      8.67894      8.32497         0.053661     -0.067073      0.019039
O	      6.31457      6.37084     10.59108        -0.013114      0.015989     -0.026902
O	      8.48833      8.68759     10.59533        -0.035623     -0.030823     -0.017643
