# total energy = -230.38010903 eV
 
CRYSTAL
PRIMVEC
0.021214 6.348444 6.400802 
6.257022 0.009358 6.412831 
4.168109 4.237040 0.009483 
PRIMCOORD
36 1
Li	      0.11077      0.04446      0.11716         0.003902      0.019586      0.026395
Li	      2.08495      2.03765      0.11187         0.073256      0.037480      0.033677
Li	      1.97053      0.10722      2.06666         0.108597      0.076338     -0.023920
Li	      6.25622      2.13629      4.31499        -0.070211      0.056621      0.070210
Li	      4.27578      6.21199      2.15554         0.049185     -0.000183      0.024846
Li	      2.08299      2.16623      4.21484         0.015901      0.022598     -0.036628
Li	      4.13269      4.25204      4.16857         0.067101     -0.033579     -0.063265
Li	      4.16197      2.14475      6.36512        -0.046503     -0.007413     -0.020372
Li	      2.07387      4.25769      6.33609        -0.042821     -0.005835     -0.065401
Ti	      8.35761      4.35413      4.42140        -0.159508      0.458983      0.360100
Ti	      6.21085      4.06912      6.37766         0.069679     -0.435233     -0.128256
Mn	      4.16752      2.23198      2.10587        -0.124241     -0.105733      0.004928
Fe	      2.10375      6.29727      4.34109        -0.056192     -0.042252     -0.073580
Fe	      4.15620      6.41568      6.30006         0.042755      0.053773      0.055739
Fe	      8.24893      8.47757      8.56515         0.056603     -0.015188     -0.057721
Fe	      6.26998      6.36104      8.48073        -0.005947      0.023886      0.001654
Co	      2.15383      4.21181      2.15491         0.103429     -0.086354     -0.214132
Co	      4.21044      8.44109      4.32057        -0.044798      0.038048     -0.229189
O	      2.25968      2.17107      2.14182         0.101742     -0.000970     -0.016240
O	      4.21502      4.17846      2.13285        -0.109844      0.079988      0.058091
O	      4.20638      1.96146      4.28989        -0.016228     -0.541948     -0.038268
O	      6.38159      4.21423      4.45167         0.187457     -0.026837      0.219936
O	      6.24082      2.25687      6.47117        -0.002807      0.415789      0.002692
O	      8.26858      4.25513      6.33045        -0.127244      0.040365     -0.309305
O	      2.07244      4.31707      4.22014        -0.611980      0.023308      0.145249
O	      4.12477      6.32722      4.31705         0.065697      0.247256     -0.124168
O	      4.25704      4.28722      6.52521         0.107134     -0.006928     -0.040098
O	      6.19643      6.24414      6.50459        -0.018643     -0.041853      0.002778
O	      6.22640      4.31490      8.46531        -0.048908     -0.002748     -0.020481
O	      8.26560      6.44424      8.64574        -0.032815     -0.013173      0.006952
O	      2.15924      6.36029      6.28591        -0.007253      0.006457      0.056257
O	      4.20949      8.36257      6.37650        -0.011523     -0.003203      0.179517
O	      4.19731      6.33173      8.60811        -0.000248     -0.029810      0.008190
O	      6.22896      8.40188      8.52202         0.019194     -0.025854      0.041293
O	      6.20741      6.34603     10.61699         0.003234     -0.179741     -0.035679
O	      8.36943      8.52273     10.54679         0.462847      0.004361      0.198198
