# total energy = -223.47380729 eV
 
CRYSTAL
PRIMVEC
-0.011652 6.371246 6.171727 
6.341431 -0.018460 6.178731 
4.224830 4.249249 -0.009615 
PRIMCOORD
36 1
Li	      4.26310      8.50263      8.19515        -0.022832      0.021585      0.030890
Li	     10.35728      6.41817      8.17349         0.058264      0.051537     -0.043956
Li	      8.37917      4.45791      8.15840        -0.032332     -0.037009     -0.036776
Li	      8.40529      6.40316      6.36636        -0.008150      0.031919     -0.120486
Li	      6.31283      4.25521      6.35660        -0.014760      0.017572      0.018097
Li	      8.46766      6.32573     10.08545        -0.005451     -0.005458      0.034047
Li	      6.38210      8.43867      6.28123         0.028318     -0.042200      0.053769
Li	      8.44611      8.23469      8.13285         0.038914      0.026049     -0.054584
Li	      6.57798      6.36050      8.11431        -0.052347     -0.041179     -0.023813
Ti	      4.22622      6.30656     10.21712         0.028140     -0.224996     -0.138338
Ti	      2.14904      2.20146      4.10518         0.028076      0.224737     -0.259415
Mn	      6.36717      8.43623     10.23209         0.000132     -0.049888      0.049488
Fe	      4.23764      4.22932      0.11595        -0.004695     -0.040638     -0.017629
Fe	      4.17293      4.30275      4.10888        -0.008203     -0.040134     -0.032622
Fe	      6.32664      4.22598     10.11546         0.060365     -0.032288      0.205213
Fe	      4.25192      6.33452      6.28144        -0.054436      0.006870      0.059623
Cu	      2.10880      2.11334      0.09100        -0.091603      0.068971      0.096724
Ni	      6.30735     10.57876      8.22506        -0.001387     -0.014669     -0.001529
O	      2.09283      2.00969      2.27397         0.018175      0.065290      0.410207
O	      4.25194      4.20999      2.09661        -0.088856     -0.021334      0.036872
O	      4.15260      2.09897      4.19371        -0.056050     -0.049439      0.026554
O	      6.38699      4.27274      4.15701         0.038832     -0.012940      0.134985
O	      6.45010      1.96732      6.01636        -0.018908      0.051189     -0.057185
O	      8.55198      4.13887      6.04199        -0.026909      0.042371     -0.019820
O	      2.13649      4.11999      4.12293        -0.030115     -0.141926      0.015387
O	      4.31049      6.36054      4.18374         0.001743      0.048461     -0.016312
O	      4.19061      4.36192      6.04967        -0.012678     -0.033569      0.094148
O	      6.20234      6.37438      6.09341         0.115789     -0.003409     -0.070436
O	      6.36437      4.21406      8.31075         0.010150     -0.002048     -0.279989
O	      8.46153      6.34974      8.22399         0.014558     -0.006606     -0.031691
O	      2.09639      6.44960      6.18858         0.013507     -0.042747     -0.132551
O	      4.13908      8.51175      6.04860         0.093380     -0.006501     -0.024551
O	      4.16882      6.45482      8.28773         0.060927      0.049647      0.179001
O	      6.29225      8.53597      8.37042         0.002057     -0.097889     -0.008500
O	      6.20041      6.34048     10.31660        -0.054608      0.032236      0.006291
O	      8.46146      8.66685     10.13912        -0.027007      0.208434     -0.081114
