# total energy = -224.89020286 eV
 
CRYSTAL
PRIMVEC
0.007869 6.224332 6.233391 
6.352056 0.008117 6.233321 
4.245308 4.160344 -0.005391 
PRIMCOORD
36 1
Li	      4.27445      4.15020      0.17479        -0.031296     -0.004989     -0.044262
Li	      6.10646      4.00512      2.15786        -0.028437     -0.007454     -0.007273
Li	      4.35404      2.24830      2.08589        -0.031564     -0.090965      0.023305
Li	      6.34097      8.35378     10.27189        -0.004696      0.002252      0.008816
Li	      4.28636      6.09531      2.08948        -0.014908      0.004900      0.025892
Li	      4.29291      4.14055      3.97197         0.010115      0.021752      0.108638
Li	      6.34105      4.13611     10.32864        -0.028243     -0.040601     -0.034186
Li	      6.31473      8.33537      6.32297        -0.074141      0.014924     -0.051261
Li	      8.41107      8.33329      8.32432        -0.017715      0.005893     -0.004317
Ti	      2.15929      2.02553      0.11233         0.151987     -0.164204      0.245396
Ti	      2.07902      6.12645      4.11767        -0.030012     -0.188967      0.102902
Mn	      4.20784      6.18171      6.26793         0.008136     -0.011563      0.077404
Fe	      4.18334      6.18708     10.26908         0.145987      0.032971      0.016764
Fe	      4.34274      2.16435      6.17009        -0.035983     -0.040466      0.076117
Fe	      6.38311      4.16147      6.28095        -0.029146      0.068804     -0.179839
Fe	      6.36878      6.37314      8.30999         0.013153     -0.113602     -0.083185
Ni	      2.22259      4.16414      2.09162        -0.046117     -0.037447     -0.005828
Ni	      2.11121      2.10725      4.09127        -0.060654      0.084497     -0.064142
O	      2.05523      2.09741      1.99177        -0.003125     -0.117638     -0.298877
O	      4.18312      4.15610      2.07688         0.145714     -0.002769      0.014456
O	      4.20983      1.98165      4.23766         0.118659      0.046387     -0.124352
O	      6.46872      4.22395      4.18900        -0.090170     -0.111827      0.034390
O	      6.33108      2.16525      6.24187         0.192734     -0.085193     -0.009155
O	      8.48695      4.10710      6.15397         0.034805     -0.011144     -0.085820
O	      2.08931      4.24728      4.17768        -0.030928      0.308290      0.126533
O	      4.12781      6.23227      4.30752        -0.086624     -0.000454     -0.032055
O	      4.36197      4.17654      6.22723        -0.029408      0.116896     -0.001214
O	      6.51193      6.22934      6.21223        -0.012332      0.012149      0.041655
O	      6.50148      4.29841      8.20856        -0.095554      0.009687      0.160371
O	      8.49190      6.28325      8.37439         0.030803      0.113122      0.035770
O	      2.02067      6.31484      6.11928         0.026006      0.132129     -0.040540
O	      4.06233      8.14033      6.27495        -0.170634      0.001601     -0.016590
O	      4.33531      6.18069      8.28330        -0.018566     -0.009988     -0.131220
O	      6.37694      8.24741      8.26487         0.018582      0.176915      0.007772
O	      6.44703      6.22539     10.31447         0.043533     -0.024631      0.084237
O	      8.46334      8.31354     10.50670         0.030034     -0.089266      0.023696
