# total energy = -92.57427596 eV
 
CRYSTAL
PRIMVEC
-2.027658 4.159414 -2.027344 
1.970301 4.101796 1.969333 
2.007036 0.029500 -6.003321 
PRIMCOORD
16 1
Li	      0.02249      4.07297     -3.99688        -0.118939      0.018875     -0.361077
Li	      1.90858      6.09041     -3.94887         0.068924      0.275975     -0.318947
Li	      1.89561      4.07462     -5.86518        -0.014686      0.049259     -0.301760
Li	     -0.00389      2.04378     -1.98606        -0.250654     -0.041326      0.008213
Mn	      0.00084      0.00093     -0.00109        -0.453542     -2.070823      1.041279
Mn	     -0.00871      6.08672     -2.03597        -0.384452      1.512502      0.129819
Ni	      1.92177      4.05084     -1.97748         0.617381     -0.069024      0.539690
Ni	      1.91552      2.03798     -3.89901         0.356863     -0.835839     -0.385456
O	     -0.02618      4.14881     -6.02273        -0.012378      0.077899     -0.984795
O	      1.83516      6.02114     -1.98925         0.639828      0.837800     -0.002956
O	      2.05105      4.00411     -3.94350         0.214288      0.751387     -0.734809
O	      1.92498      3.87095      0.03501         0.212837      0.228528      0.699280
O	      1.93007      2.08080     -1.89177         0.255144     -0.901738     -0.001604
O	     -0.03672      6.23062     -0.13270        -0.038167      0.661434      0.650602
O	     -0.09168      4.22599     -1.98640        -0.575992     -0.675443     -0.214043
O	      0.07474      1.86712     -0.01708        -0.516456      0.180534      0.236562
