# total energy = -231.29204419 eV
 
CRYSTAL
PRIMVEC
0.009614 6.316213 6.302762 
6.317081 0.015425 6.296738 
4.208328 4.203759 0.013606 
PRIMCOORD
36 1
Li	      4.21084      0.06445      4.23931        -0.012629      0.017520      0.032993
Li	      6.28475      2.08962      4.20534         0.000870      0.007582      0.016731
Li	      8.38487      4.26661      8.41958        -0.032453      0.025176      0.001754
Li	      4.13160      2.19459      6.25870        -0.049842      0.036824     -0.049353
Li	      6.22270      4.32256      6.28974        -0.013074      0.054144     -0.047776
Li	      8.40126      6.32053     10.47546        -0.010598      0.018910      0.011021
Li	      2.23487      4.14992      6.26652         0.027820     -0.048789     -0.027672
Li	      4.30631      6.18409      6.28554         0.089563     -0.003780     -0.004618
Li	      4.24040      4.18414      8.32635         0.019131      0.006072     -0.034841
Ti	      8.36944      2.19702      6.22195         0.006217      0.221274     -0.345087
Ti	      2.29082      6.22735      8.44167         0.264926     -0.197613      0.137218
Mn	      4.18070      4.21206      4.27613        -0.018387     -0.013238      0.113287
Fe	      6.30706      6.34778     12.52755        -0.032635     -0.009174      0.052408
Fe	      4.19764      2.08063      2.17255         0.021961      0.028954     -0.146279
Fe	     10.37389      6.38815      8.40494         0.072985      0.017060     -0.000319
Fe	      0.08398      4.20802      4.18341        -0.155092      0.004408      0.116331
Fe	      6.40755      6.34891      8.29585         0.004974     -0.053168      0.158484
Co	      6.32973      6.32931      4.29304         0.032144     -0.002649     -0.075209
O	      2.02835      1.98043      1.98113        -0.077094     -0.011904     -0.102775
O	      4.27001      4.28834      2.17567        -0.000553      0.043236     -0.050535
O	      4.12308      2.17226      4.17745         0.009233      0.069427      0.170074
O	      6.33421      4.29404      4.05930         0.049963      0.001138     -0.146866
O	      6.39695      2.06156      6.33772         0.098261      0.019251     -0.019453
O	      8.51082      4.09054      6.33937        -0.071829     -0.227862     -0.019334
O	      2.02906      4.11935      4.23740         0.047252     -0.042446     -0.017740
O	      4.28613      6.34507      4.14085         0.003829     -0.135383      0.039772
O	      4.22688      4.22814      6.11402         0.015056     -0.012186     -0.045589
O	      6.31134      6.31088      6.44663         0.011981      0.039048     -0.052231
O	      6.30105      4.21186      8.48161         0.015440      0.029425     -0.042072
O	      8.43861      6.33251      8.41352        -0.073265      0.013258      0.007724
O	      2.00792      6.39649      6.43769         0.047829      0.001319      0.087326
O	      4.11537      8.49553      6.34329        -0.080478     -0.055428     -0.099236
O	      4.18537      6.27795      8.39325        -0.259735     -0.098389      0.010960
O	      6.35059      8.48955      8.43524         0.108642      0.184891      0.037664
O	      6.33893      6.25642     10.52265        -0.034600      0.042945     -0.053408
O	      8.52105      8.37572     10.67220        -0.025814      0.030148      0.386644
