# total energy = -228.82588048 eV
 
CRYSTAL
PRIMVEC
-0.020102 6.440638 6.155494 
6.315959 -0.013135 6.148407 
4.195390 4.273927 0.006636 
PRIMCOORD
36 1
Li	      6.32936     10.66126      8.22200         0.039854     -0.017218      0.049815
Li	      4.24075      8.52627      8.20854         0.027042     -0.036520      0.030921
Li	      6.20833      2.23663      8.16722        -0.019411      0.005966     -0.020853
Li	      8.29550      4.40490      8.15385        -0.041388      0.078274     -0.040223
Li	      8.31713      6.36420      6.24450        -0.027630     -0.082201     -0.022451
Li	      6.32358      4.35935      6.22109         0.040783      0.038727     -0.040477
Li	      8.38920      6.42662     10.16141         0.005766      0.019808     -0.033355
Li	      6.30289      8.50409      6.26312        -0.028209     -0.040214      0.034285
Li	      6.38255      6.38205      8.12078        -0.000846     -0.010716     -0.003006
Ti	      4.26078      4.31651      0.14147        -0.092789      0.085606      0.111858
Ti	      4.11669      4.29152      4.08557        -0.171987      0.053827     -0.052191
Mn	      6.36103      4.31690     10.16793        -0.029755      0.045369     -0.023365
Fe	      2.09426      2.15678      0.16035        -0.011949      0.154186     -0.107468
Fe	      6.30442      8.54580     10.17064        -0.030041     -0.005413      0.262766
Fe	      2.12894      2.08711      4.04773         0.032039     -0.073284     -0.180969
Fe	      4.25692      6.42229      6.28220        -0.125229      0.123348     -0.007661
Fe	      8.42394      8.38001      8.14718        -0.099718      0.090487      0.067579
Cu	      4.21136      6.41685     10.19764        -0.071987      0.049678     -0.052874
O	      2.10056      2.14071      2.07671         0.023420     -0.026199      0.151894
O	      4.18787      4.29311      2.04313         0.029579     -0.008078     -0.051944
O	      4.22596      2.32144      4.12996         0.004375      0.322990      0.021009
O	      6.20830      4.27442      4.11727        -0.110741     -0.021535      0.002307
O	      6.37873      1.96759      6.11866        -0.052990     -0.133585      0.017013
O	      8.53944      4.17291      6.05871         0.089859     -0.025004      0.211134
O	      2.22310      4.20287      4.06194         0.211717      0.042778      0.001464
O	      4.24585      6.29986      4.16540        -0.035239     -0.106078     -0.027996
O	      4.13919      4.40605      6.07970        -0.003538     -0.022830     -0.044094
O	      6.19710      6.44620      6.02742         0.095013      0.012686      0.133897
O	      6.19335      4.27161      8.14800         0.083496      0.025217     -0.021771
O	      8.38121      6.48764      8.17669        -0.006288     -0.099320     -0.045343
O	      2.00831      6.51214      6.17004         0.027944     -0.082099      0.029346
O	      4.12603      8.60818      6.18150         0.089985     -0.030345      0.009442
O	      4.19299      6.38325      8.21118         0.035470     -0.061890     -0.163300
O	      6.36852      8.55985      8.28409        -0.038494      0.034710     -0.242910
O	      6.26316      6.50991     10.38656         0.073947     -0.061023      0.032170
O	      8.30873      8.53335     10.29678         0.087941     -0.240101      0.015348
