# total energy = -229.25435204 eV
 
CRYSTAL
PRIMVEC
0.005865 6.403851 6.222375 
6.346433 0.022462 6.205648 
4.239010 4.266186 0.007087 
PRIMCOORD
36 1
Li	      0.17358      6.48979      6.16599         0.034915      0.068143      0.002852
Li	      2.05966      8.39812      6.16497        -0.023796     -0.014396      0.019816
Li	      2.12653      6.36693      8.25172        -0.005426     -0.036506      0.043898
Li	      6.40703      2.14969      4.26140         0.028894      0.002032      0.031886
Li	      4.33311      2.27973      6.15918         0.045717      0.054164     -0.010824
Li	      6.22630      4.20169      6.17751        -0.014514     -0.028346     -0.013703
Li	      8.40767      6.48377     10.46250        -0.045374      0.041085     -0.014488
Li	      2.16532      4.37331      6.19007        -0.025146      0.008987     -0.004075
Li	      4.20354      4.31727      8.25560        -0.017414      0.039314      0.025783
Ti	      8.46565      4.29275      8.12673         0.074832     -0.045606     -0.416461
Ti	      6.39974      6.55772      8.20942         0.005657      0.449956     -0.030714
Mn	      4.28172      8.59658      8.22416         0.041736      0.035058     -0.038990
Fe	      8.41700      4.21237      4.23589         0.030522      0.103492     -0.016831
Fe	      6.33341      2.17091      8.14211        -0.069359     -0.021273      0.123699
Fe	      6.38404      6.39431      4.25709         0.009143     -0.058694     -0.039652
Fe	      4.19989      8.56714      4.24873         0.005688     -0.017958     -0.084171
Fe	      4.05201      6.29834      6.23406         0.153617      0.141544      0.077688
Ni	      4.25373      4.25003      4.20443         0.038149     -0.046692     -0.088246
O	      2.03312      2.28141      2.13341         0.018123      0.058818     -0.017784
O	      4.09535      4.36937      2.14448        -0.098155     -0.010326     -0.121194
O	      4.14023      2.08700      4.15988         0.070462     -0.031973      0.045942
O	      6.41687      4.37858      4.10548        -0.044692     -0.025785     -0.002416
O	      6.33174      2.16156      6.30826         0.010853      0.007315     -0.179571
O	      8.48618      4.27210      6.27006        -0.014688      0.004152      0.407882
O	      2.09380      4.16763      4.05603        -0.093748      0.041151     -0.016706
O	      4.29712      6.43306      4.12539        -0.033803      0.044089     -0.076744
O	      4.23890      4.36650      6.17875        -0.023206     -0.111187      0.188931
O	      6.30685      6.39615      6.28916         0.004087     -0.004694      0.198214
O	      6.46985      4.28594      8.33907         0.032350      0.045520     -0.027340
O	      8.39949      6.29154      8.30682        -0.061325     -0.052764     -0.002444
O	      2.17462      6.39187      6.26525        -0.177042     -0.012483     -0.021079
O	      4.27082      8.41662      6.14957        -0.003350     -0.067658      0.107347
O	      4.39901      6.38840      8.28952         0.064487     -0.055032      0.050281
O	      6.41715      8.38144      8.33360         0.049619     -0.419960     -0.034532
O	      6.27538      6.33571     10.25755         0.089763      0.059907     -0.042370
O	      8.55450      8.66422     10.35990        -0.057575     -0.143392     -0.023883
