# total energy = -233.21563986 eV
 
CRYSTAL
PRIMVEC
0.010074 6.335302 6.452041 
6.227779 0.034514 6.427755 
4.165141 4.220546 0.009655 
PRIMCOORD
36 1
Li	     10.29665      4.28781      6.50773        -0.002454      0.048330      0.027662
Li	      4.11561      2.14807      2.20713        -0.031856     -0.004368      0.030241
Li	      8.27017      4.28278      4.38451        -0.024358      0.039582      0.034127
Li	      8.40355      4.24874      8.47723         0.014111      0.023311     -0.031650
Li	      2.15967      2.11322      4.32640         0.034208      0.008225      0.030163
Li	      4.14805      4.19626      4.30081        -0.005586     -0.021759      0.006647
Li	      8.28936      6.24467      6.43687         0.006080     -0.046140     -0.022079
Li	      6.28830      4.29685      6.37902        -0.038384      0.003591     -0.066544
Li	      4.16419      4.23935      8.52442         0.044020     -0.037209     -0.052944
Ti	      6.07411      2.17204      4.31839        -0.585569      0.228674      0.176353
Ti	      6.26613      4.30431     10.67150         0.126159     -0.140803     -0.198150
Mn	     10.35308      6.32807      8.56029        -0.034422      0.021906      0.018519
Fe	      8.32077      2.35336      6.43121        -0.072203     -0.090170      0.081712
Fe	      2.08831      0.02558      2.16572         0.022908      0.022751      0.057930
Fe	      8.30509      6.36542     10.72994         0.098152      0.002206     -0.013779
Fe	      6.31592      8.39204      6.49472        -0.007167     -0.043961      0.012649
Fe	      4.20646      6.26997      6.46310         0.101662     -0.004557     -0.045845
Fe	      6.25698      6.31692      8.58148         0.010650     -0.055821     -0.052841
O	      1.97314      2.04488      2.04109         0.004370      0.078133     -0.013527
O	      4.23642      4.37054      2.15417        -0.067264     -0.003799     -0.025025
O	      4.25991      2.11939      4.27883         0.542390      0.007544     -0.034653
O	      6.25991      4.08125      4.16879        -0.030077     -0.212620      0.063216
O	      6.30228      2.12951      6.23152        -0.038899     -0.003873     -0.170673
O	      8.30061      4.20226      6.47532        -0.010240      0.091131     -0.039701
O	      1.96346      4.21217      4.44763        -0.193098     -0.010082     -0.042014
O	      4.20286      6.49236      4.39874         0.035124      0.129201      0.027758
O	      4.09200      4.30281      6.41977         0.061942     -0.020305      0.027835
O	      6.20953      6.40037      6.47347         0.011787      0.009692     -0.059661
O	      6.21693      4.11607      8.74183         0.024698     -0.026738      0.286416
O	      8.37267      6.32880      8.66016         0.084486      0.010556     -0.033576
O	      2.13423      6.28577      6.48453        -0.027095      0.063262      0.008215
O	      4.16806      8.42060      6.35888         0.016013     -0.010667     -0.058929
O	      4.14137      6.37986      8.46517        -0.062227     -0.012890      0.005841
O	      6.24394      8.51614      8.63594         0.007619      0.007606     -0.008089
O	      6.19290      6.34709     10.70277        -0.046981     -0.087232      0.081211
O	      8.39697      8.49911     10.84302         0.031502      0.037292     -0.006815
