# total energy = -216.40449663 eV
 
CRYSTAL
PRIMVEC
0.012576 6.406477 6.370385 
6.144701 0.016632 6.366910 
4.076685 4.248808 0.031157 
PRIMCOORD
36 1
Li	      4.08463      6.36787     10.51315        -0.080657     -0.104689      0.022106
Li	      6.07709      2.21830      4.12517         0.066435      0.034625      0.036662
Li	      2.03141      4.23716      2.16621        -0.012839      0.024322     -0.019906
Li	      6.18996      6.35418      4.45638        -0.017666     -0.039623      0.036741
Li	      8.00150      6.52657      6.37517         0.041066      0.054463      0.076173
Li	      6.12981      4.45156      6.27438         0.003897     -0.015458     -0.020628
Li	      8.17716      6.40520     10.60635        -0.028430      0.030082     -0.040874
Li	      8.12981      8.54958      8.57861         0.076642     -0.080983     -0.023734
Li	      6.14874      6.48311      8.38560         0.095118     -0.067408      0.022993
Ti	      6.08904      0.10506      6.23463        -0.180593      0.112658     -0.325641
Ti	     10.08331      6.39711      8.60997        -0.751703      0.194116      0.007350
Mn	      2.08475      8.52327      6.37507        -0.047607      0.102231     -0.254399
Mn	      0.07194      4.27677      4.20610         0.133566      0.030276      0.040214
Co	      4.10134      4.21636      4.27892         0.257157     -0.277796      0.122634
Cu	      4.13704      8.39958      8.64203        -0.041180     -0.106451      0.134670
Ni	      6.17137     10.60761      8.58007        -0.160662      0.013333      0.029297
Ni	      6.19141      8.39822      6.43728        -0.028472      0.078070     -0.119574
Ni	      4.16643      6.27873      6.45928        -0.111939     -0.017203     -0.142163
O	      2.10087      2.08352      1.93463         0.006639      0.034905      0.022961
O	      4.08368      4.33531      2.15384        -0.149836      0.263383     -0.707914
O	      4.07336      2.39985      4.30662        -0.215215     -0.272562     -0.310980
O	      5.94763      4.26736      4.22787         0.828831      0.180068     -0.043152
O	      6.26881      2.03468      6.49775         0.051095     -0.140941      0.009541
O	      8.27886      4.08693      6.40201         0.213477     -0.054354     -0.004662
O	      2.04895      4.30031      4.34494        -0.618206     -0.032411     -0.267385
O	      4.08980      6.22386      4.17720         0.002622      0.340237     -0.191739
O	      4.09103      4.30017      6.17353        -0.010838     -0.027947      1.120936
O	      6.10094      6.40748      6.41636         0.171681     -0.087563     -0.010073
O	      6.17769      4.08958      8.67702         0.030454     -0.202939     -0.080145
O	      8.28350      6.39746      8.47731         0.632069     -0.022317      0.067883
O	      2.01493      6.53215      6.40387        -0.057833      0.058000     -0.068800
O	      4.06328      8.61355      6.24318        -0.089190      0.061632      0.131928
O	      4.09056      6.40801      8.47912         0.167089      0.083220      0.099697
O	      6.07052      8.56750      8.43978        -0.068165     -0.106510      0.192542
O	      6.16130      6.49704     10.78481        -0.039861     -0.039867      0.410339
O	      8.32645      8.53320     10.80503        -0.066951      0.001403      0.047102
