# total energy = -217.13935643 eV
 
CRYSTAL
PRIMVEC
-0.021351 6.110698 6.293330 
6.127568 -0.018070 6.290043 
4.129107 4.116099 -0.056556 
PRIMCOORD
36 1
Li	      0.05940      6.05720      6.23203        -0.046307      0.050553     -0.000877
Li	      1.95801      6.07067      8.21637        -0.031795      0.066729      0.006941
Li	      4.20929      8.12390      8.17492        -0.037501      0.012397     -0.053415
Li	      4.19683      6.06689     10.55248        -0.040895      0.008032      0.072101
Li	      8.21352      4.10134      8.28380         0.022347     -0.018436     -0.045613
Li	      6.18325      4.06265      6.30064        -0.089605      0.041685      0.001399
Li	      1.94061      6.11848      4.34408         0.069987      0.048543     -0.024569
Li	      3.99122      6.22323      6.32337         0.059951     -0.059058     -0.019252
Li	      6.09250      6.14768      8.45779         0.032917     -0.024036     -0.036845
Ti	      6.18508      6.02397      4.07802        -0.004274     -0.353419      0.066247
Ti	      4.00915      4.23876      8.45754         0.109197      0.314328     -0.131873
Mn	     10.23461      6.12646      8.33804         0.038334     -0.274885      0.013442
Mn	      8.20470      6.02417      6.26659         0.064288      0.017188      0.003675
Co	      2.03086      4.09453      6.27932        -0.598538      0.797615      0.156972
Cu	      6.09852      8.08835     10.43136         0.012320      0.196928     -0.046588
Cu	      4.05271      4.10484      4.14998         0.115043      0.011825      0.002063
Ni	      2.10409      8.14419      6.26206         0.000472      0.008552      0.045304
Ni	      6.13327      4.19001     10.50522        -0.005755     -0.104157     -0.029583
O	      6.14701      6.17046     10.41996         0.001530     -0.064660      0.019987
O	      1.96600      2.06821      2.15966        -0.053255      0.015635      0.230328
O	      4.08752      4.26942      2.16146        -0.013365      0.132449     -0.072131
O	      4.05564      1.92501      4.35690        -0.106385     -0.056087      0.073764
O	      6.03118      4.13359      4.19281         0.123683      0.124660     -0.043219
O	      6.05965      2.01294      6.47139         0.076216     -0.034012      0.013562
O	      8.16529      4.15000      6.27942         0.052722     -0.044892      0.023081
O	      2.10064      3.99317      4.32561        -0.113321      0.084219     -0.208333
O	      4.23481      6.29254      4.01407         0.069504      0.044975      0.011469
O	      3.99276      3.93411      6.34134         0.846343     -0.277092      0.190119
O	      6.26677      6.20801      6.12526         0.094719     -0.734680     -0.167550
O	      6.00636      3.97615      8.41207        -0.067197      0.100006      0.045696
O	      8.29637      6.16190      8.20067        -0.023297     -0.010542      0.031401
O	      2.06992      6.06320      6.26477         0.038446      0.393461      0.008234
O	      4.17775      8.18989      6.17589        -0.604841     -0.092993     -0.011273
O	      4.08920      6.02463      8.34925         0.003671     -0.332094      0.032763
O	      6.21651      8.15602      8.16239        -0.010788     -0.015012      0.076613
O	      8.11710      8.17846     10.38100         0.015431      0.026274     -0.234042
