# total energy = -216.05227296 eV
 
CRYSTAL
PRIMVEC
0.022384 6.362873 6.313674 
6.060667 0.032847 6.302942 
4.071675 4.266305 -0.009535 
PRIMCOORD
36 1
Li	      2.02041      2.15558      0.08721         0.038168     -0.103397     -0.007302
Li	      1.98064      0.09087      2.10327        -0.074083      0.046141      0.017307
Li	      6.18375      2.35012      8.35588         0.046838     -0.019985     -0.073728
Li	      7.98957      4.18044      8.39269         0.027480      0.000928      0.035946
Li	      1.98497      2.24413      4.12642         0.001173      0.112134      0.025967
Li	      6.12841      4.24464      6.45402        -0.009121     -0.023974      0.022307
Li	      6.08051      4.22351     10.32436         0.034702     -0.005689     -0.003812
Li	      2.02088      4.27063      6.30621         0.001076     -0.030871     -0.043537
Li	      6.10963      6.24256      8.38956        -0.014181     -0.079944      0.017609
Ti	      2.06554      6.24416      4.10045         0.036821     -0.405649      0.373379
Ti	      4.15096      6.32041      6.37626        -0.043034      0.168786     -0.121136
Mn	      4.00480      2.17525      2.07625        -0.292785     -0.048226     -0.333332
Mn	      6.08243      2.18441      4.18919         0.118561     -0.270454      0.093828
Co	      8.04663      6.38084      6.37789         0.533046     -0.310805     -0.121403
Cu	      0.02214      0.01232      0.01468         0.265393     -0.254206      0.272222
Cu	      8.11965     10.63103     10.50196        -0.313448     -0.153524     -0.164971
Cu	      4.09934      4.31292      4.16605         0.051302      0.015246     -0.157316
Ni	      8.16291      8.49833      8.43189         0.082901      0.118469      0.046829
O	      8.19534      4.35294      6.13306        -0.485944      1.252268      0.244122
O	      6.04805      4.27197      8.42770         0.161733      0.043952     -0.010073
O	      2.13961      2.12398      2.13782         0.232279     -0.011665     -0.046369
O	      4.06155      4.07739      1.98170        -0.018558      0.051636     -0.021222
O	      4.12410      2.30652      4.07944         0.012894     -0.077437      0.669507
O	      6.09508      4.07621      4.23104         0.069274      0.180933     -0.032950
O	      6.02236      2.10967      6.13955        -0.983259      0.363264      0.196735
O	      2.07952      4.37896      4.19912        -0.210631      0.342596      0.029573
O	      4.02932      6.35428      4.34151        -0.035313      0.256161      0.119752
O	      4.03622      4.39360      6.43620        -0.128847     -0.564213     -0.195187
O	      6.02173      6.41655      6.27528         0.584495     -0.096878      0.141062
O	      8.15205      6.42190      8.51351        -0.088235     -0.147591     -0.979776
O	      2.07749      6.38314      6.17092         0.446239     -0.063924     -0.111365
O	      4.08943      8.41890      6.48547        -0.023311     -0.487720      0.121105
O	      4.05383      6.50565      8.39339        -0.023404      0.107428     -0.181617
O	      6.04514      8.51083      8.59014        -0.110323     -0.015744     -0.036381
O	      6.09696      6.53323     10.53203         0.300873      0.105948      0.004130
O	      8.01183      8.39338     10.47228        -0.190771      0.006005      0.210095
