# total energy = -217.53573125 eV
 
CRYSTAL
PRIMVEC
0.012332 6.075392 6.569150 
6.241703 0.015134 6.566499 
4.135728 4.022587 0.034811 
PRIMCOORD
36 1
Li	      2.10433      8.04129      6.52482         0.030713      0.023422      0.017730
Li	      4.19977      6.02976     10.90087         0.013718      0.090302     -0.020781
Li	      6.33454      8.07622     10.94022        -0.069304     -0.013236      0.001459
Li	      4.15375      6.04031      2.31286        -0.033005     -0.047622      0.019354
Li	      8.30308      4.09377      8.82191         0.039982     -0.025657      0.028631
Li	      8.29203      6.07424      6.78263         0.036156     -0.002013      0.036152
Li	     10.29634      8.02517     10.90147         0.017456     -0.000272     -0.015670
Li	      8.29551      6.14073     10.92078         0.002147     -0.064307      0.021763
Li	      4.12911      6.09096      6.53573        -0.023032      0.081848     -0.027648
Ti	      6.26785      6.12555     13.00742        -0.029151     -0.230952     -0.269507
Ti	      6.33884      4.01234      6.61875         0.132497     -0.063138     -0.185463
Mn	      4.14172      4.06037      4.40337        -0.212968      0.102665     -0.120305
Mn	      8.31146      8.07338      8.84344         0.481506     -0.269071      0.052719
Co	      4.08220      2.03983      2.18853        -0.639939      0.338328      0.084044
Cu	      2.11110      6.09776      8.69297         0.014671     -0.097836     -0.016991
Cu	      2.07195      2.02557      4.35335         0.046673      0.114779      0.024373
Cu	      2.08102      4.01744      6.45614        -0.190174      0.112075     -0.055003
Cu	      6.24004      6.09913      8.84165         0.004379     -0.084249     -0.008709
O	      1.95716      5.98431      6.47680        -0.038709      0.023733     -0.093431
O	      8.30841      8.10008     10.69763        -0.011683     -0.015932     -0.103789
O	      2.07871      1.92775      2.34661         1.138005      0.150932     -0.264462
O	      4.20728      3.96400      2.12136        -0.126658     -0.391265      0.054242
O	      4.11104      2.12254      4.11022         0.135339     -0.132506      0.077506
O	      6.11038      4.04603      4.64024         0.080571     -0.191057      0.282333
O	      6.27543      2.03700      6.60961         0.012060      0.032604      0.043046
O	      8.25044      4.05057      6.66047        -0.119815      0.012024      0.032633
O	      2.19041      4.00628      4.38494         0.111013      0.053673     -0.147254
O	      4.21434      5.97714      4.42062        -0.088473     -0.117874      0.002534
O	      4.32823      4.04963      6.76683         0.052560      0.031983      0.191200
O	      6.28838      6.05653      6.43250        -0.006946     -0.076787      0.105039
O	      6.14990      4.11405      8.65796        -0.252791     -0.048161      0.017789
O	      8.20871      6.18136      8.81414         0.062940      0.281614      0.011080
O	      4.05523      8.16160      6.85852         0.080148      0.035255     -0.041180
O	      4.19668      6.09630      8.77782        -0.119760      0.137990     -0.079360
O	      6.35807      8.10228      8.72906        -0.544073      0.216126      0.042049
O	      6.17084      6.04940     11.20344         0.013945      0.032579      0.303878
