# total energy = -216.68759060 eV
 
CRYSTAL
PRIMVEC
0.027053 6.276186 6.202668 
6.111314 0.030448 6.199068 
4.084142 4.191851 0.010359 
PRIMCOORD
36 1
Li	      6.14677     10.43231      8.27250         0.002267     -0.040592      0.049576
Li	      6.16213      8.38464     10.32291        -0.012293     -0.015824     -0.009983
Li	      8.10784      4.21198      8.23408        -0.034931      0.020337      0.010859
Li	      8.18572      6.30520      6.26661        -0.007743     -0.023497     -0.008634
Li	      6.10115      4.24188      6.28415         0.007053      0.112804     -0.004799
Li	      6.13929      4.24624     10.31499         0.016156      0.014791     -0.054645
Li	      6.12792      8.39120      6.27182         0.001978      0.000711     -0.024473
Li	      4.10112      6.29515      6.26596         0.012287     -0.026181      0.005304
Li	      6.16413      6.28366      8.15732         0.019142     -0.041837     -0.122291
Ti	      4.20915      6.28574     10.33655         0.098897      0.062293      0.008751
Ti	      6.02677      6.34078      4.21510        -0.037519      0.035401      0.666398
Mn	      4.11118      4.17580      4.19627         0.014892      0.001082      0.076058
Mn	      4.06018      4.18695      8.19148        -0.024388      0.021743     -0.022820
Co	      8.13010      6.32994     10.32579        -0.023580     -0.044300     -0.010873
Ni	      4.10267      4.17860      0.04364        -0.075139     -0.059675      0.005798
Ni	      2.04399      2.07203      0.06797         0.010027      0.019734     -0.045079
Ni	      4.18726      8.38344      8.22493         0.060092     -0.041255      0.015767
Ni	      6.11942      2.14649      8.22705        -0.030119     -0.031696      0.007652
O	      2.07307      2.11338      2.16366        -0.010794     -0.021038      0.146117
O	      4.11777      4.18461      2.22498         0.004602      0.020761      0.084426
O	      4.01949      1.95407      4.08672        -0.026506     -0.117438      0.123326
O	      6.13904      4.31386      4.18794         0.024560      0.042307      0.012561
O	      6.14374      1.90998      6.23607        -0.130343      0.092954     -0.138151
O	      8.23162      4.16144      6.10144        -0.033488      0.072706     -0.131293
O	      2.15062      4.24823      4.12236        -0.033406     -0.088108     -0.012869
O	      4.05997      6.35228      4.15312         0.063680      0.010570      0.110058
O	      4.10283      4.17130      6.21597        -0.002563      0.023218      0.039857
O	      6.12874      6.33656      6.03493        -0.031144      0.005025     -0.551125
O	      5.97799      4.17537      8.22701         0.011766      0.113878      0.010602
O	      8.15977      6.42750      8.40110        -0.088663      0.021915      0.113724
O	      1.96617      6.32808      6.01372         0.104141     -0.117155     -0.090884
O	      4.07632      8.53971      6.25287         0.118596     -0.064222     -0.143474
O	      4.10243      6.18008      8.35792        -0.034940     -0.064638      0.070442
O	      6.23216      8.39758      8.25538         0.170788      0.007471      0.029313
O	      6.12573      6.28705     10.33840        -0.121109     -0.002329     -0.146937
O	      8.15132      8.40215     10.23190         0.017745      0.100083     -0.068258
