# total energy = -219.19576023 eV
 
CRYSTAL
PRIMVEC
-0.002425 6.271974 6.195811 
6.193982 0.007569 6.185456 
4.144645 4.189535 -0.009963 
PRIMCOORD
36 1
Li	      4.13581      2.11193      2.13776         0.016196      0.002594     -0.009658
Li	      4.19510      6.37563     10.23212         0.043450     -0.037060     -0.010146
Li	      8.19958      4.32275      8.35348        -0.014507     -0.050503     -0.007717
Li	      2.16363      2.19178      4.12928         0.100947      0.091801     -0.041457
Li	      4.05194      4.14115      4.12349        -0.013906     -0.056637     -0.052241
Li	      4.10869      2.10176      6.16865         0.020392     -0.035271     -0.113068
Li	      6.23475      4.16538     10.13575        -0.030953      0.024549      0.033290
Li	      4.21583      4.08962      8.24618        -0.031260      0.040079      0.020446
Li	      6.27571      6.13967      8.22644        -0.015302     -0.017892      0.002451
Ti	      8.36443      2.25768      6.19602         0.135877      0.445249     -0.189250
Ti	      6.25486      4.18192      2.17739         0.182693     -0.090709      0.307831
Mn	      6.13047      8.29441     10.27482        -0.120557      0.012241      0.032715
Mn	      2.11916      4.12463      6.16900        -0.259838     -0.128981     -0.160706
Co	      6.18226      0.03259      6.18912        -0.202085     -0.047705      0.063236
Co	      2.04575      6.23534      4.15580         0.342846     -0.355548     -0.408374
Cu	      4.21326      6.19804      6.12379         0.279334      0.000143      0.177184
Ni	     10.26917      6.33363      8.32233         0.158089     -0.063032     -0.032652
Ni	      6.16102      4.24186      6.21945        -0.082639      0.112345     -0.129680
O	      2.06590      1.97475      1.95437         0.090486     -0.084129     -0.157494
O	      4.25129      4.23686      1.91854         0.095637     -0.084600     -0.000694
O	      4.28378      2.05634      4.10755         0.028999      0.064306      0.001633
O	      6.22728      4.10545      4.06770        -0.036694      0.054325     -0.210363
O	      6.31211      2.01907      6.23126         0.048620      0.067409     -0.001970
O	      8.32154      4.11710      6.16550         0.028549     -0.406511      0.093915
O	      2.05122      4.28912      4.25559        -0.127392     -0.750106      0.147400
O	      3.97546      6.28949      4.20751         0.351419      0.070817     -0.018129
O	      3.99546      4.17870      6.17619         0.234332     -0.004761      0.046829
O	      6.23261      6.43281      6.13858        -0.011601     -0.303276      0.096031
O	      6.19844      4.15159      8.16282        -0.041729      0.187829     -0.070106
O	      8.28090      6.26784      8.46326        -0.176585      0.036891      0.099029
O	      1.89152      6.21584      6.17749         0.026310      0.197714      0.045945
O	      4.11671      8.52547      6.16805        -0.192859      0.029084      0.018563
O	      3.97338      6.29608      8.10350        -0.242747     -0.032012      0.039177
O	      6.18828      8.47007      8.12355         0.028472      0.152216      0.012636
O	      6.25317      6.31903     10.43447        -0.498843      0.152914      0.009250
O	      8.13994      8.22734     10.44664        -0.113151      0.806229      0.366142
