# total energy = -92.87307282 eV
 
CRYSTAL
PRIMVEC
-2.038003 4.180636 -2.037688 
1.980354 4.122723 1.979381 
2.017276 0.029651 -6.033950 
PRIMCOORD
16 1
Li	      0.02272      4.11463     -4.03777        -0.083517      0.016301     -0.268701
Li	      1.92811      6.15272     -3.98927         0.050112      0.200497     -0.238761
Li	      1.91500      4.11631     -5.92517        -0.017796      0.038391     -0.219203
Li	     -0.00393      2.06468     -2.00638        -0.182885     -0.031930      0.014272
Mn	      0.00085      0.00094     -0.00110        -0.313391     -1.552711      0.809411
Mn	     -0.00880      6.14899     -2.05680        -0.266971      1.099008      0.106542
Ni	      1.94143      4.09228     -1.99771         0.432014     -0.051525      0.407121
Ni	      1.93511      2.05882     -3.93890         0.259656     -0.597842     -0.262790
O	     -0.02645      4.19125     -6.08434         0.023977      0.031639     -0.786206
O	      1.85394      6.08274     -2.00960         0.408954      0.640033     -0.008377
O	      2.07203      4.04507     -3.98384         0.164600      0.577611     -0.564470
O	      1.94468      3.91055      0.03536         0.159271      0.166746      0.545530
O	      1.94982      2.10209     -1.91112         0.182797     -0.692214      0.022672
O	     -0.03709      6.29436     -0.13405        -0.003316      0.528164      0.452139
O	     -0.09262      4.26922     -2.00672        -0.445807     -0.468245     -0.161433
O	      0.07550      1.88622     -0.01725        -0.367697      0.096076      0.152255
