# total energy = -217.98641075 eV
 
CRYSTAL
PRIMVEC
0.009575 6.309722 6.040784 
6.410251 0.012000 6.037775 
4.278685 4.209822 0.002888 
PRIMCOORD
36 1
Li	      4.21503      4.14646      0.04836        -0.044296     -0.029096      0.004211
Li	      2.22596      2.16988      0.09514         0.037664      0.042746      0.025027
Li	      2.10760      6.34916      7.92035        -0.068297      0.025309      0.034571
Li	      4.29608      8.42262      7.89910         0.036596      0.006300      0.010320
Li	      8.65307      4.15768      7.89346         0.024508     -0.014752      0.099831
Li	      8.56080      6.13462      6.07417        -0.016244      0.153906     -0.002238
Li	      6.58772      4.23317      6.06250        -0.147892      0.008849      0.048964
Li	      6.31979      8.52591      6.12854         0.033417     -0.157954     -0.031081
Li	      4.15872      6.41215      6.13065         0.115347     -0.019185     -0.018050
Ti	      6.44739      2.23925      4.06672        -0.122164      0.104069      0.272849
Ti	      2.27328      2.19071      4.09053         0.070577      0.122617      0.385171
Mn	      6.40379      2.09370      7.99423         0.019255     -0.132671     -0.007829
Mn	      4.26143      8.44369      4.14062         0.115897     -0.164888      0.012678
Co	      4.28511      4.25080      4.15398        -0.487277      0.494803     -0.508950
Co	      2.15400      6.29878      4.11729         0.094280     -0.103960      0.378576
Cu	      4.29912      0.01038      4.04999         0.057135      0.133990      0.006386
Cu	      4.24876      4.23338      7.94835        -0.192519      0.137155     -0.515346
Ni	      6.41395      6.29741      7.95092         0.078183     -0.109512     -0.204605
O	      4.37123      6.20930      8.13261        -0.155595      0.103490      0.071840
O	      1.96583      2.09019      2.14055         0.016092     -0.011933     -0.006339
O	      4.25066      4.37479      2.18799         0.113223     -0.004452     -0.185452
O	      4.25040      2.13074      3.92260         0.020687     -0.374954      0.042543
O	      6.30831      4.16527      4.00318        -0.027178     -0.084507      0.058452
O	      6.32881      2.09360      5.89481         0.117740     -0.028977     -0.317749
O	      8.55583      4.19785      5.94474         0.011767     -0.039197     -0.010487
O	      2.20258      4.10148      4.03516         0.033560     -0.128652      0.022668
O	      4.28286      6.39428      4.12370         0.154817      0.232333     -0.205820
O	      4.28110      4.21288      5.93743         0.280545     -0.457552      0.369028
O	      6.47851      6.26058      5.93098        -0.005141     -0.009714     -0.398824
O	      6.29673      4.12759      8.15501         0.290641     -0.073089     -0.039902
O	      8.63286      6.37618      8.18409         0.128200     -0.040385     -0.039277
O	      2.11707      6.32354      5.90571         0.159134     -0.017390     -0.015289
O	      4.27693      8.43862      5.97755        -0.011820      0.048103      0.006289
O	      6.49702      8.34083      8.10672        -0.185969      0.172968      0.215222
O	      6.59350      6.26829     10.00159        -0.455797      0.089058      0.084995
O	      8.41217      8.42539     10.03672        -0.089078      0.127122      0.357618
