# total energy = -219.36676715 eV
 
CRYSTAL
PRIMVEC
-0.018652 6.227439 6.211405 
6.313697 -0.035583 6.227854 
4.191689 4.145334 -0.006123 
PRIMCOORD
36 1
Li	      4.17864      2.03891      2.07535         0.024917     -0.056857      0.007445
Li	      6.30743      2.07537      4.22724         0.016698      0.036248     -0.017848
Li	      4.13435      4.14528      4.29853         0.009096     -0.056825      0.025956
Li	      4.15171      2.15358      6.20795        -0.054503      0.023779      0.054996
Li	      6.17135      4.14188      6.23727        -0.037138      0.020895     -0.008643
Li	      4.21626      8.21616      4.11697         0.019799      0.022815     -0.032995
Li	      2.19816      6.21045      4.11225         0.024880      0.030407     -0.016008
Li	      2.17565      4.05946      6.09203         0.070107      0.007461     -0.054516
Li	      4.25127      6.18822      6.10338        -0.003658     -0.030466      0.041723
Ti	      6.29136      6.11741     12.35602        -0.100668     -0.337975      0.014168
Ti	      6.23940     10.28715      8.26423        -0.147114     -0.021632      0.039234
Mn	      8.36287      4.14669      4.16645        -0.100159      0.124083     -0.015180
Mn	      4.22054      4.13917      8.21832        -0.040793     -0.029520     -0.151022
Co	      6.29072      6.21071      4.21279         0.120282      0.033189     -0.028453
Co	      6.28825      6.25087      8.13004        -0.172950     -0.046649     -0.075352
Cu	      8.39172      8.26770     12.41345         0.092051     -0.015194     -0.131975
Cu	      0.00117      2.11171      2.11069        -0.213617      0.002221      0.008635
Cu	      2.09244      4.13321      2.14316        -0.032534      0.175179      0.113182
O	      4.18347      4.11588      6.35624         0.006532      0.013342     -0.052707
O	      2.15380      1.94916      2.26988        -0.047510     -0.186237      0.172062
O	      4.37131      4.02285      2.00606         0.365722     -0.008354     -0.061806
O	      4.04158      1.92693      4.18172        -0.040636     -0.006482      0.011106
O	      6.37152      4.19211      4.08118        -0.016613     -0.062148     -0.006942
O	      6.42065      1.93578      6.36909        -0.026833      0.057591     -0.010368
O	      8.51571      4.07915      6.40809         0.069137      0.091742     -0.069719
O	      2.11643      3.99136      4.06154        -0.025414     -0.096606      0.052592
O	      4.36332      6.19954      4.04385         0.148638     -0.017761     -0.006642
O	      6.26464      6.21824      6.07934        -0.029413      0.023929      0.144519
O	      6.12890      4.25914      8.26482         0.259646      0.253990      0.054710
O	      8.36815      6.34546      8.35511         0.140574     -0.079232      0.003487
O	      1.98870      6.26984      6.27512        -0.108059     -0.100376     -0.051456
O	      4.09020      8.41229      6.18534         0.037794      0.200636     -0.050065
O	      4.10514      6.11922      8.20259        -0.101291      0.219927     -0.017137
O	      6.39463      8.35719      8.28066        -0.191021     -0.130608      0.006602
O	      6.15026      6.29464     10.46145         0.081916      0.015707      0.074077
O	      8.35994      8.44964     10.20346         0.002133     -0.070220      0.034340
