# total energy = -218.53193960 eV
 
CRYSTAL
PRIMVEC
-0.024144 6.284527 6.273219 
6.219664 -0.014018 6.262986 
4.138476 4.174873 -0.001343 
PRIMCOORD
36 1
Li	      6.22676      6.29919     12.37957        -0.020946      0.059996      0.026384
Li	      8.25452      8.29385     12.38855        -0.019898      0.001172      0.003428
Li	      2.13900      6.21369      8.36880        -0.008254     -0.032117     -0.023088
Li	      4.22248      6.21825     10.35462        -0.001005     -0.038696      0.005844
Li	      6.20498      8.26345     10.38304         0.010325     -0.013538      0.066137
Li	      4.16266      4.08898      4.17676         0.017440      0.003632      0.031701
Li	      8.18324      6.39596     10.52034         0.005260      0.057122      0.034835
Li	      8.19798      8.46159      8.49916        -0.060076      0.022886     -0.046456
Li	      6.08821      6.34181      8.49040         0.048482      0.040321     -0.076497
Ti	      2.06359      4.22303      2.17235         0.169695      0.050394     -0.115945
Ti	      6.23393      4.08382      6.10044         0.059341     -0.061116     -0.465225
Mn	      4.14833      6.23487      2.12973        -0.067433     -0.158415     -0.025025
Mn	      4.09947      6.29627      6.31940        -0.073948     -0.195646      0.066503
Co	      4.11718      2.08748      6.16101         0.326903     -0.105513      0.108225
Co	      2.06280      4.26005      6.33589         0.084714      0.039922     -0.053708
Ni	      4.15916      8.31677      8.43561         0.008743      0.051567     -0.149059
Ni	      6.21800      6.25050      4.18710         0.009780     -0.055525      0.066776
Ni	     10.26990      8.42103     10.46974         0.111693     -0.125439      0.090092
O	      6.18907      6.12863     10.44818         0.019443      0.275080     -0.047043
O	      1.99397      2.19343      2.12772        -0.040649      0.027248     -0.078925
O	      4.00833      4.24690      2.12134        -0.105666      0.086803      0.037408
O	      4.08636      2.10263      4.17012         0.045450      0.025696      0.584029
O	      6.20609      4.18542      4.27165        -0.020130     -0.136890      0.366158
O	      6.18086      2.19483      6.22682        -0.261636     -0.025475     -0.052676
O	      8.15422      4.16644      6.41256        -0.206113      0.070561      0.077827
O	      1.94565      4.18296      4.19113         0.099954      0.117819     -0.064386
O	      4.15605      6.42104      4.30319        -0.097163     -0.060734      0.032391
O	      4.11750      4.29981      6.26876         0.188882      0.016728     -0.094715
O	      6.13715      6.16568      6.26725         0.017070     -0.063483      0.120405
O	      6.28698      4.03672      8.29989         0.017926     -0.023328      0.022346
O	      8.39521      6.13078      8.29431        -0.046496      0.057454     -0.334770
O	      2.20734      6.26742      6.27933         0.154879      0.081117     -0.032188
O	      4.28637      8.23995      6.33745        -0.311566      0.052529     -0.099705
O	      4.11769      6.30618      8.20607        -0.004240     -0.059466     -0.061538
O	      6.16539      8.35977      8.16374         0.222176      0.021932      0.142686
O	      8.40349      8.38986     10.44876        -0.272937     -0.004597     -0.062227
