# total energy = -223.05157832 eV
 
CRYSTAL
PRIMVEC
0.009773 6.153139 6.249679 
6.263509 0.006622 6.252542 
4.187275 4.115290 -0.006311 
PRIMCOORD
36 1
Li	      2.07707      2.06296      0.15756         0.030383      0.016900      0.064793
Li	      6.24336      4.17838      2.20804        -0.003572     -0.116447      0.034189
Li	      4.05686      2.08783      2.24362        -0.033005      0.012366     -0.033206
Li	      8.26303      4.17309      4.17086        -0.001406     -0.030716     -0.008574
Li	      2.11727      4.01843      2.10085        -0.012281      0.078925      0.003692
Li	      4.24241      4.07040      4.04610         0.011502      0.019481      0.004142
Li	      6.37854      4.11002      6.17021        -0.004460     -0.011954     -0.040600
Li	      2.09522      6.13431      4.14398        -0.002691     -0.015015      0.023544
Li	      6.32251      6.19731      8.35296         0.006319     -0.014050      0.019317
Ti	     10.34328      4.16508      6.32043        -0.249683      0.334606     -0.057267
Ti	      4.12592      6.18046      6.34934        -0.016075     -0.093122      0.284794
Mn	      6.28674      4.14876     10.36575         0.049435      0.114940     -0.024520
Mn	      4.22936      4.06714      8.30579        -0.259974      0.162593     -0.026649
Co	      6.25682      2.17128      4.12648        -0.140268     -0.189507      0.207710
Co	      0.03115      2.04099      2.05391         0.123396      0.044888     -0.077675
Co	      6.23424      6.13577      4.13057        -0.013633     -0.240682     -0.159387
Cu	      8.29274      6.15865      6.16511         0.112563     -0.081440      0.054981
Ni	      6.25878      8.22551      6.27108         0.002022      0.016487      0.059944
O	      1.95626      2.04837      2.22533        -0.126641      0.025188      0.051216
O	      4.20023      4.18744      1.98225        -0.000269      0.120863     -0.132529
O	      4.03293      2.07330      4.23748        -0.000915      0.017990     -0.092162
O	      6.25801      4.15027      4.18824         0.030602      0.248505      0.068533
O	      6.40154      1.96550      6.30097         0.208489     -0.151301      0.297248
O	      8.49347      4.11467      6.26279         0.298838     -0.061002      0.026494
O	      1.94837      4.00189      4.19734        -0.039321      0.084685     -0.100282
O	      4.25348      6.21364      4.07979        -0.047306     -0.041747     -0.000154
O	      4.13693      4.17406      6.33318         0.078097      0.108885      0.129381
O	      6.08469      6.18648      6.10169        -0.282773     -0.100303     -0.075907
O	      6.17709      3.99477      8.24779         0.009179     -0.119273     -0.026227
O	      8.48649      6.27141      8.17474         0.187234     -0.047171      0.054068
O	      2.20542      6.15896      6.21068         0.120904      0.112355      0.020809
O	      4.18306      8.20263      6.35668        -0.182884     -0.011092     -0.021545
O	      4.26204      6.04733      8.21809        -0.022131      0.012857     -0.329846
O	      6.49643      8.17535      8.36098         0.192334     -0.024500     -0.215266
O	      6.33715      6.14148     10.55491         0.023665     -0.140145      0.081679
O	      8.50923      8.22389     10.19980        -0.045674     -0.043047     -0.064740
