# total energy = -222.05566676 eV
 
CRYSTAL
PRIMVEC
-0.035015 6.203597 6.154559 
6.249814 -0.020645 6.139656 
4.161172 4.120529 -0.008455 
PRIMCOORD
36 1
Li	      8.34977      2.13006      6.10562         0.002432     -0.012820      0.011094
Li	      4.07628      2.10464      2.10694         0.008331     -0.035590      0.028725
Li	      4.19878      0.13064      4.18392        -0.034858     -0.026385     -0.031743
Li	      6.22646      2.07805      4.18673        -0.000432      0.004528     -0.020133
Li	      0.10782      2.00354      1.98615        -0.012512      0.031813      0.066211
Li	      2.08304      4.04641      1.98330         0.027472     -0.019158      0.040656
Li	      4.25677      1.97546      6.11362        -0.024325     -0.006758      0.019939
Li	      6.12256      8.26330      6.09292        -0.060458      0.026082     -0.058582
Li	      4.10779      6.28633      6.13004        -0.011245      0.093426      0.005302
Ti	      2.14125      6.23751      4.09467         0.115054      0.124284     -0.050385
Ti	      6.16427      6.26331      8.07927         0.051878      0.081953     -0.101569
Mn	     10.34689      4.14229      6.14043         0.018296     -0.060215      0.097540
Mn	      6.26638      4.11021      2.08282         0.069212     -0.071084      0.034598
Co	      6.22508      6.16725      4.14544        -0.020065      0.117021     -0.002982
Co	      4.12117      4.06212      4.15596        -0.021141      0.001925      0.039963
Co	      4.11980      4.11323      7.98233        -0.037654     -0.021122     -0.046547
Cu	      6.33698      4.00140      6.16625        -0.045762      0.072075      0.106349
Cu	      6.24250      4.15418     10.24323        -0.091880      0.048836     -0.103615
O	      2.09162      1.89834      2.26153         0.009702      0.030121      0.032510
O	      4.32624      4.07581      2.20779         0.045814     -0.024864     -0.076213
O	      3.95696      2.16291      4.15704         0.048977     -0.087174      0.033809
O	      6.09201      4.21220      4.23398         0.127671     -0.015604     -0.106529
O	      6.29295      1.98485      6.15710         0.002716      0.125429     -0.005594
O	      8.47202      4.09731      6.14361        -0.126872     -0.043125      0.017818
O	      2.16630      4.04714      4.03707         0.030102     -0.010731      0.041064
O	      4.11833      6.02362      4.10564        -0.031581     -0.018158      0.029987
O	      4.06648      4.10917      6.16590         0.157333      0.012303      0.035185
O	      6.16377      6.16347      6.18463         0.023006     -0.028477      0.019558
O	      6.19069      4.23260      8.20426         0.096045     -0.112293      0.045631
O	      8.16358      6.17708      8.22592        -0.065175     -0.014177      0.007949
O	      1.96038      6.20449      6.00695         0.023233      0.036829     -0.064927
O	      4.12345      8.38579      6.02318        -0.014688     -0.129866      0.103315
O	      4.13913      6.16260      8.23295         0.050876      0.033734     -0.061843
O	      6.23630      8.25323      8.20127        -0.100754     -0.079851     -0.052781
O	      6.35652      6.24811     10.09125        -0.055493      0.004448     -0.016375
O	      8.38165      8.08295     10.06453        -0.153254     -0.027355     -0.017386
