# total energy = -222.25244636 eV
 
CRYSTAL
PRIMVEC
-0.016516 6.144622 6.228325 
6.236927 -0.026150 6.238233 
4.148076 4.093231 -0.007751 
PRIMCOORD
36 1
Li	      4.06119      4.02476      0.02649        -0.047828      0.000577      0.015416
Li	      8.35477      2.11277      6.26524         0.016104     -0.036898      0.018563
Li	      2.06624      6.13141      8.15591        -0.019157     -0.018457     -0.063483
Li	      8.35928     10.15906     10.50189         0.006859     -0.013143      0.015738
Li	      8.24899      4.10421      8.11642        -0.040848      0.020186     -0.001244
Li	      8.29104      6.02795      6.35043        -0.063950      0.013201      0.050578
Li	      6.09248      4.20133     10.38790        -0.071835      0.081525     -0.039283
Li	      2.06686      4.17694      6.31601         0.025557     -0.020268      0.004520
Li	      4.22990      4.05006      8.23359        -0.026525      0.013143     -0.012119
Ti	      6.33397      8.11003     10.46885         0.168098     -0.261491      0.173475
Ti	      2.09815      2.13297      4.18286        -0.006313      0.138180      0.130861
Mn	      4.14034      8.18793      8.24669         0.015079      0.092874     -0.003777
Mn	      2.07028      6.10333      4.18285        -0.121442     -0.026931      0.039613
Co	      4.17867      4.06182      4.15455         0.114836      0.015719     -0.000954
Co	      6.24464      4.06663      6.21812        -0.008120      0.055762     -0.102186
Co	      6.22435      6.10892      8.30241         0.093491     -0.064959      0.124453
Ni	      6.20114      2.01368      8.22056         0.003602     -0.015740     -0.014750
Ni	      4.10408      6.13302      6.27317         0.050952     -0.020914     -0.052000
O	      2.17228      1.98590      2.21144         0.153873     -0.009139      0.066879
O	      4.16390      4.01772      2.18679         0.015910     -0.141637      0.046843
O	      4.13430      2.12081      4.05978        -0.030798      0.066978     -0.068998
O	      6.12033      4.06401      4.22207        -0.058290     -0.052980      0.038084
O	      6.19134      2.11823      6.17451         0.026438      0.048300     -0.223035
O	      8.15680      4.07903      6.19133        -0.072490     -0.003911      0.042106
O	      2.18339      4.02192      4.20919         0.052010     -0.200766     -0.030516
O	      4.25537      6.03844      4.06908         0.111188     -0.048791     -0.016931
O	      4.25325      4.10670      6.08218         0.061864     -0.108286     -0.075385
O	      6.22607      6.01906      6.08714         0.071465     -0.014356     -0.291269
O	      6.21075      4.09153      8.14701        -0.036027      0.237629     -0.051711
O	      8.26201      6.09929      8.48151        -0.160922      0.017767      0.013952
O	      2.10645      6.14326      6.07406        -0.075748      0.011058     -0.018033
O	      4.14818      8.17950      6.39131         0.032177      0.076643      0.142440
O	      4.22664      6.26503      8.31139         0.122073      0.012228      0.021885
O	      6.08478      8.15177      8.41125        -0.030465     -0.081947      0.050318
O	      6.18802      6.22216     10.48553         0.011853      0.286742      0.032999
O	      8.18087      8.15810     10.33722        -0.282671     -0.047900      0.036951
