# total energy = -224.87786819 eV
 
CRYSTAL
PRIMVEC
0.005094 6.181112 6.265103 
6.266288 0.029426 6.239935 
4.197529 4.124187 -0.000249 
PRIMCOORD
36 1
Li	      6.23106      0.14326      6.26857        -0.001468     -0.021346      0.015365
Li	      6.23257      4.09858      2.08876        -0.020799      0.005820      0.007592
Li	      4.23404      2.16652      2.05461         0.094362      0.027007     -0.021213
Li	      6.32312      8.24347     10.40749         0.048885      0.024006      0.005634
Li	      8.32691      4.17279      8.25290        -0.042119      0.018835     -0.015673
Li	      4.35519      2.06500      6.33206        -0.006965     -0.000866     -0.027092
Li	      6.31954      4.04350      6.31264         0.031954      0.038607     -0.004361
Li	      8.33364      8.17729      8.38704         0.049086     -0.024298      0.033281
Li	      6.39033      6.23297      8.35870         0.037471     -0.038253     -0.033147
Ti	      4.17952      0.09537      4.23419        -0.177946      0.063324      0.437577
Ti	      4.23183      6.17504      6.45512         0.138900     -0.041337      0.162849
Mn	      4.29080      4.09463      4.11280         0.012218     -0.021333     -0.016963
Mn	      6.25131      8.27485      6.33707        -0.040799     -0.064490      0.022407
Co	      2.12719      2.07580      4.06096        -0.023033      0.081231     -0.116027
Co	      6.22240      2.12111      8.27971         0.001276      0.015153     -0.017202
Co	     10.40763      8.25872     10.39087         0.028265      0.038249     -0.052033
Co	      8.31684      6.21665     10.39150        -0.002296      0.001047     -0.110583
Ni	      8.28788      2.10378      6.29111        -0.075622      0.034732      0.082092
O	      1.92311      2.09438      2.10547        -0.020734     -0.084791      0.063240
O	      4.19935      4.24938      2.22154        -0.034146     -0.132888      0.246045
O	      4.25834      2.01737      4.10259        -0.091375     -0.043272     -0.032998
O	      6.45104      4.13934      4.12053         0.097988     -0.021663     -0.019551
O	      6.30080      2.08241      6.29722        -0.135364      0.016864      0.015461
O	      8.38832      4.16668      6.08572         0.040414      0.094173     -0.489559
O	      1.93833      4.19454      4.29685         0.083478      0.017597      0.096045
O	      4.00711      6.22581      4.26138         0.031180     -0.063557     -0.001667
O	      4.22512      4.23887      6.08740         0.024739      0.078319     -0.054859
O	      6.15373      6.27018      6.15700        -0.201809      0.005725      0.075603
O	      6.27197      4.00719      8.49321        -0.019903      0.132282      0.142556
O	      8.49021      6.18594      8.49998        -0.048796      0.036741      0.013063
O	      2.15429      6.14983      6.14501         0.026921     -0.118422     -0.091132
O	      4.08250      8.14308      6.14589         0.159997     -0.075123      0.042468
O	      4.19525      6.18593      8.27639        -0.032829      0.021983     -0.220970
O	      6.28763      8.26244      8.16950         0.044982     -0.032340     -0.055418
O	      6.27201      6.06951     10.36801         0.032546     -0.016756      0.013000
O	      8.46940      8.24681     10.42611        -0.008659      0.049038     -0.093830
