# total energy = -215.46910537 eV
 
CRYSTAL
PRIMVEC
0.007558 6.165011 6.197542 
6.236581 0.002150 6.202851 
4.161206 4.117070 -0.002079 
PRIMCOORD
36 1
Li	      8.18748      1.98813      6.19365        -0.047358     -0.024716     -0.010303
Li	      8.30829      4.04533      4.20391         0.005653     -0.021390     -0.003048
Li	      6.29029      2.07748      4.19453         0.020010     -0.003565     -0.039717
Li	      6.22906      2.10046      8.20170        -0.011416      0.015647     -0.038332
Li	      6.21650      6.14253      4.20519         0.020586     -0.006489     -0.016627
Li	      6.28945      4.11396      6.16905        -0.002454      0.024867     -0.038229
Li	      2.07819      6.17857      4.23186        -0.057898      0.031768      0.066412
Li	      4.14308      6.15161      6.15569        -0.035801     -0.010399      0.060388
Li	      6.31808      6.14577      8.22582        -0.002100     -0.006825      0.013775
Ti	      4.18906      8.07596      8.25818        -0.005446     -0.370959      0.008525
Ti	     10.30333      8.23718     10.31000        -0.298930      0.270452     -0.138881
Mn	      4.19014      4.20058      4.13653         0.135194     -0.022461      0.092796
Mn	      4.17658      2.04520      6.18750         0.014987      0.050336     -0.035411
Cu	      8.28762      4.13405      8.26975        -0.068813      0.005472     -0.041142
Ni	      6.25212      0.05126      6.17381        -0.023604      0.005699     -0.016859
Ni	      2.05039      0.04598      2.05958         0.042842      0.043316      0.076793
Ni	      2.09312      4.10875      6.18029         0.044502     -0.026872     -0.004483
Ni	      8.30784      8.23892      8.26719         0.000871      0.058510     -0.016870
O	      2.24173      2.10623      2.02139         0.069153      0.044059      0.038196
O	      4.11564      4.07915      2.17799         0.005326      0.009946      0.049578
O	      4.17998      2.19310      4.10639        -0.012710      0.067021     -0.023669
O	      6.05795      4.16299      4.04670        -0.089995      0.003558      0.148880
O	      6.10712      2.05167      6.17084        -0.056562      0.126643      0.022890
O	      8.34581      4.26414      6.25438        -0.093500      0.002406     -0.126408
O	      2.14977      4.12861      4.08964         0.029685     -0.015870      0.051290
O	      4.15592      6.12418      4.16776         0.007350      0.020509     -0.050520
O	      4.17397      4.04197      6.11052         0.115122     -0.020988     -0.116089
O	      6.43628      6.21302      6.17485         0.037908     -0.116652      0.016692
O	      6.26155      4.08018      8.39319        -0.010541      0.050514      0.153992
O	      8.32688      6.21536      8.07909         0.037089     -0.086097     -0.022693
O	      2.01851      6.12267      6.29836         0.142372      0.083122     -0.189376
O	      4.20253      8.21098      6.24533        -0.163148     -0.118049      0.028381
O	      4.13467      6.21371      8.30433         0.145582      0.388335     -0.018488
O	      6.17360      8.26076      8.25104        -0.167879     -0.130063      0.101336
O	      6.25505      5.98139     10.36525        -0.023561     -0.309767     -0.116908
O	      8.42609      8.20009     10.30002         0.297484     -0.011015      0.134127
