# total energy = -93.08727551 eV
 
CRYSTAL
PRIMVEC
-2.048348 4.201857 -2.048031 
1.990406 4.143651 1.989428 
2.027516 0.029801 -6.064579 
PRIMCOORD
16 1
Li	      0.02295      4.15651     -4.07887        -0.049230      0.017579     -0.179713
Li	      1.94773      6.21534     -4.02987         0.033684      0.125312     -0.156637
Li	      1.93449      4.15820     -5.98548        -0.020254      0.029453     -0.139909
Li	     -0.00397      2.08570     -2.02680        -0.122706     -0.019887      0.019882
Mn	      0.00085      0.00095     -0.00110        -0.188313     -1.037284      0.555624
Mn	     -0.00889      6.21158     -2.07773        -0.163580      0.711265      0.074315
Ni	      1.96119      4.13393     -2.01804         0.259774     -0.033352      0.280663
Ni	      1.95481      2.07978     -3.97899         0.163630     -0.376838     -0.150928
O	     -0.02672      4.23391     -6.14627         0.054950     -0.016346     -0.572105
O	      1.87280      6.14465     -2.03006         0.205678      0.453622     -0.006251
O	      2.09312      4.08624     -4.02439         0.122805      0.414804     -0.406123
O	      1.96447      3.95035      0.03572         0.109476      0.107511      0.391097
O	      1.96966      2.12348     -1.93057         0.118206     -0.496567      0.053140
O	     -0.03747      6.35843     -0.13542         0.027535      0.371280      0.276452
O	     -0.09356      4.31267     -2.02714        -0.326238     -0.287627     -0.105908
O	      0.07627      1.90541     -0.01743        -0.225417      0.037075      0.066402
