# total energy = -214.56225390 eV
 
CRYSTAL
PRIMVEC
0.013292 6.263654 6.207642 
6.332355 0.031826 6.188992 
4.239265 4.181310 0.003404 
PRIMCOORD
36 1
Li	      4.27286     10.33186      6.18216        -0.017508     -0.024318      0.029607
Li	      2.27820      8.30729      6.13154        -0.028261      0.005843     -0.025881
Li	      4.37427      8.26662      8.19857        -0.015332      0.057605      0.010389
Li	      4.32271      6.30217     10.22600         0.076313      0.027291     -0.028347
Li	      4.21319      2.13925      6.17079         0.031082      0.010335      0.026361
Li	      4.20114      8.41786      4.26596        -0.053202     -0.003457     -0.035400
Li	      6.19763      8.35156      6.29339         0.001505     -0.000602     -0.024388
Li	      8.32686      8.46400      8.29405         0.046614     -0.038751     -0.010172
Li	      6.22765      6.43360      8.28867         0.016886     -0.040774      0.025015
Ti	      8.45927      4.21132      8.21497         0.090096      0.057270     -0.009344
Ti	      6.35302      4.13650      6.20350        -0.048889     -0.144463      0.115786
Mn	      4.22057      4.13850      4.14911        -0.047591      0.039822     -0.024110
Mn	      8.38463      6.32196     10.37317        -0.030880      0.011585      0.008125
Cu	      6.38950      8.33583     10.29209        -0.006774      0.084797      0.107814
Cu	      2.18366      2.09709      4.16050         0.078614      0.025225      0.054066
Cu	      4.23703      6.36368      6.24466        -0.040183     -0.066537     -0.018275
Ni	      2.19705      6.23270      8.23323        -0.122626      0.138085     -0.092535
Ni	     10.55347      6.31238      8.26250        -0.057006     -0.003446      0.011697
O	      4.23343      8.29481      6.20630        -0.003914      0.174613      0.009929
O	      4.19318      6.28337      8.17662         0.160075     -0.018744      0.211586
O	      6.35863      8.42628      8.33962        -0.021435     -0.085511     -0.140932
O	      2.04025      2.18147      2.24579         0.105358     -0.004262     -0.119631
O	      4.15681      4.22027      2.15526        -0.134849     -0.124920      0.003014
O	      4.33826      2.23689      4.14924         0.026344     -0.077995      0.011243
O	      6.46096      4.14165      4.16412        -0.001620      0.140327      0.101448
O	      6.35461      2.23500      6.20374        -0.006073      0.193318     -0.097151
O	      8.38165      4.23778      6.32629        -0.067886     -0.003465      0.125336
O	      2.02824      4.28943      4.05400        -0.012907     -0.031286     -0.030174
O	      4.04773      6.14627      4.14359        -0.095568     -0.005937     -0.006326
O	      4.37849      4.21858      6.09233         0.136490     -0.103149      0.029439
O	      6.28969      6.18192      6.06069         0.142209      0.024644      0.020103
O	      6.44592      4.20119      8.13399         0.075103      0.086502     -0.129808
O	      8.47908      6.17914      8.39013        -0.091615     -0.086136     -0.033838
O	      2.21196      6.25637      6.12037        -0.159105     -0.058425     -0.108284
O	      6.47817      6.36901     10.36363        -0.030585     -0.225727      0.018579
O	      8.41818      8.20025     10.31472         0.107120      0.070643      0.015060
