# total energy = -214.49368833 eV
 
CRYSTAL
PRIMVEC
0.046088 6.704139 6.120046 
6.013015 0.066570 6.109714 
4.059956 4.520485 -0.014896 
PRIMCOORD
36 1
Li	      2.03405      8.75491      6.04547         0.109954      0.027479     -0.030146
Li	      2.03842      6.77729      8.04015        -0.009543      0.055515      0.032690
Li	      4.04794      2.46887      6.14647        -0.054206      0.046125      0.011394
Li	      5.95708      4.65575      6.14181         0.047122      0.138078      0.023334
Li	      4.10009      8.95966      4.10295         0.002278      0.012757     -0.010522
Li	      8.10514      6.90363     10.24236         0.054275      0.014705     -0.068196
Li	      2.10256      4.64424      6.07421        -0.013955      0.000682      0.020310
Li	      3.95747      6.58555      6.07603         0.063059     -0.034234     -0.018462
Li	      4.00795      4.52296      8.06489         0.021980     -0.103140     -0.015350
Ti	      4.07702      8.93625      8.02048         0.121679     -0.036297     -0.637840
Ti	      8.10269     11.12170     10.28068         0.034394     -0.194756      0.168576
Mn	      6.06982      6.80090      4.15844        -0.182378      0.054853      0.304948
Mn	      6.12456      6.72744      8.06683        -0.062264      0.128506     -0.155217
Cu	      0.14320      6.77099      6.12189        -0.162768     -0.212714     -0.018753
Cu	      5.99339      2.25933      4.15758         0.032093      0.021019      0.089135
Cu	      6.00129      2.37693      8.10601        -0.047903      0.029714     -0.139076
Cu	      8.05877      4.61684      8.11536        -0.077993      0.053513      0.033395
Cu	      4.06876      4.50076      4.16794         0.204333     -0.007540     -0.033883
O	      8.05276      6.76137      8.16806         0.322620      0.251338     -0.001304
O	      2.00309      6.72816      6.09556         0.026914      0.054807     -0.012536
O	      7.95038      9.25216     10.12515         0.054606      0.198072      0.074559
O	      2.03876      2.25215      2.17913         0.058381     -0.180959     -0.045067
O	      4.02345      4.24991      2.27766         0.034411     -0.168319     -0.156460
O	      3.97726      2.02606      4.05497        -0.070126     -0.309248     -0.068705
O	      6.03367      4.81402      4.07669         0.080593      0.004076      0.016213
O	      6.03466      2.16028      6.15141         0.017611      0.035920      0.133048
O	      8.20305      4.53218      5.99977        -0.099773      0.004831     -0.124533
O	      2.20975      4.20331      4.13918        -0.108414     -0.051339     -0.295143
O	      4.18923      6.93094      3.93409         0.035419      0.184897      0.121520
O	      4.05888      4.54287      5.99399        -0.011318     -0.028229      0.301795
O	      6.04876      6.79504      6.08111         0.004222     -0.054890     -0.127498
O	      6.13305      4.81614      8.08141         0.082223      0.024410      0.021151
O	      4.06340      9.09262      6.21249         0.000043      0.037551      0.563655
O	      4.13460      6.89650      8.16577        -0.177704      0.084247      0.060593
O	      6.01326      8.79386      8.25914        -0.162069     -0.000971     -0.186015
O	      5.98712      6.63747     10.00485        -0.167793     -0.080458      0.168390
