# total energy = -221.52695338 eV
 
CRYSTAL
PRIMVEC
-0.018489 6.116507 6.242359 
6.300890 -0.032176 6.255127 
4.181864 4.067207 -0.002216 
PRIMCOORD
36 1
Li	      4.23137     10.11167      6.27751         0.042169     -0.007345     -0.012720
Li	      2.11663      8.10938      6.24905        -0.044899     -0.022827     -0.026986
Li	      6.22066      4.03289      2.06809        -0.060293     -0.021865     -0.026906
Li	      4.16479      2.11710      2.02787         0.029215      0.043756      0.027392
Li	      4.11390      4.06093      4.11972         0.013974     -0.047318     -0.007128
Li	      6.26972      4.04178      6.22323         0.011335     -0.002661     -0.041833
Li	      0.08324      4.08171      4.22039         0.007519      0.040811      0.061803
Li	      2.05527      6.03175      4.22863        -0.033232      0.024434      0.052325
Li	      2.04431      4.12345      6.17460         0.007645      0.009837     -0.032387
Ti	      4.03297      6.19100      6.13754        -0.337120      0.143922      0.201786
Ti	      6.25138      6.14032      8.32952        -0.103006      0.195225      0.162482
Mn	      0.02108      2.03734      2.08236        -0.012711     -0.116736     -0.092491
Mn	      4.21208      2.08887      6.19562         0.008726      0.039611     -0.059133
Fe	      8.33197      4.00327      4.26453         0.228218     -0.048907     -0.182911
Co	      6.29171      2.04077      4.21274        -0.117952     -0.014267      0.076324
Cu	      2.12238      4.05559      2.11890         0.053741     -0.046598     -0.164574
Ni	      6.26777      6.10298      4.16469         0.209189     -0.151359      0.038001
Ni	      8.40244      8.09850      8.35312        -0.104337      0.084703      0.066943
O	      2.10328      4.01562      4.07515        -0.037214      0.118452      0.161220
O	      1.94892      2.10216      2.09129        -0.056946     -0.330560     -0.125404
O	      4.12423      4.22164      2.06082         0.206167      0.032591     -0.013891
O	      4.19689      1.95987      4.13467        -0.107877      0.063529     -0.177131
O	      6.38700      4.02001      4.12298        -0.250627      0.294579     -0.024748
O	      6.22338      2.04934      6.24035         0.071130     -0.056162      0.027520
O	      8.39275      4.20568      6.22631        -0.009577      0.021977      0.176833
O	      4.23901      6.06949      4.26588        -0.178910      0.016784     -0.236294
O	      4.19524      4.01105      6.31679         0.037811      0.003374     -0.185410
O	      6.29147      6.08006      6.36525         0.061224      0.033253     -0.025539
O	      6.31213      4.00853      8.36783        -0.076272      0.000341      0.004773
O	      8.37700      6.04727      8.35750         0.139913      0.120698      0.137301
O	      2.22236      6.08409      6.25786         0.094867      0.004118      0.004838
O	      4.17463      8.01880      6.26822         0.023870     -0.101302     -0.032136
O	      4.33806      6.04880      8.24302         0.039847      0.220346      0.141665
O	      6.33068      8.02105      8.39971        -0.083014     -0.184676     -0.050677
O	      6.19047      6.12651     10.28826         0.065945     -0.201785     -0.024287
O	      8.28236      8.18203     10.37602         0.261483     -0.157975      0.201380
