# total energy = -220.59542003 eV
 
CRYSTAL
PRIMVEC
-0.000069 6.454214 6.172389 
6.238174 0.007810 6.164168 
4.153418 4.292205 0.010873 
PRIMCOORD
36 1
Li	      2.06532      2.09925      0.15772        -0.029233     -0.085130      0.020417
Li	      2.03821      0.09767      2.01790        -0.021693      0.159746     -0.067626
Li	      4.04929      2.23296      2.03439        -0.094235      0.070324     -0.045052
Li	      6.23151      8.57997     10.20272         0.012673     -0.033367      0.038282
Li	      0.12465      2.15287      2.09802        -0.012966     -0.018262      0.034835
Li	      2.06885      4.13735      2.13316         0.010886     -0.055162      0.013283
Li	      6.24086      4.39542     10.23207         0.014679      0.077852     -0.014529
Li	      8.28771      6.44162     10.26177         0.025316      0.003129      0.003292
Li	      6.25691      6.51621      8.25255         0.001031     -0.022648      0.018415
Ti	      4.22421      6.32882     10.13552         0.395917     -0.415780     -0.061929
Ti	      8.39420      6.40132      6.27329         0.324799     -0.018461      0.477440
Mn	      4.15788      4.26609      4.00768        -0.023155      0.118032     -0.047085
Mn	      4.11828      6.55114      6.19858        -0.102768      0.121015     -0.098590
Fe	      6.25233      4.28708      6.28443        -0.064811     -0.198104     -0.083804
Co	      4.22518     10.70889      6.26269         0.094309      0.128277     -0.018528
Cu	      2.08801      4.36072      6.18841         0.016204      0.075989     -0.100916
Cu	      8.27642      8.53327      8.30649         0.126776     -0.039210      0.204532
Ni	      2.06767      2.14082      4.01146        -0.118694      0.025660      0.018574
O	      6.37189      8.58863      8.06186        -0.026356      0.014142      0.139035
O	      2.06432      2.19673      2.06907         0.035153     -0.017655     -0.191283
O	      4.14144      4.31138      2.13782         0.005104     -0.043864     -0.000117
O	      4.13744      2.22248      4.15725         0.130394     -0.055414      0.052568
O	      6.19832      4.29854      4.17695         0.091927     -0.133791     -0.047303
O	      6.11687      2.14427      6.17400        -0.371634      0.072063      0.002556
O	      8.22365      4.46323      6.06869         0.141003      0.126731     -0.047365
O	      2.21733      4.24292      4.24363         0.062347      0.063049     -0.118660
O	      4.15752      6.21730      4.22755        -0.086536     -0.111334      0.058636
O	      4.19225      4.13987      5.98364        -0.095444     -0.106772     -0.030909
O	      6.15434      6.31126      6.13704         0.085947     -0.066678      0.124549
O	      6.10211      4.27492      8.16534        -0.065761     -0.040823      0.179026
O	      8.25247      6.49049      8.12077        -0.015938      0.004430     -0.410255
O	      2.22266      6.51918      6.16169        -0.022392      0.090530     -0.022448
O	      4.30151      8.71218      6.17064         0.044692     -0.172725      0.034541
O	      4.16819      6.45616      8.23441        -0.044884      0.044104      0.134326
O	      6.09176      6.50325     10.33724        -0.421487     -0.019716     -0.081649
O	      8.29757      8.80571     10.38684        -0.001169      0.459824     -0.066261
