# total energy = -221.72252756 eV
 
CRYSTAL
PRIMVEC
0.029761 6.269066 6.281028 
6.314843 0.051080 6.260038 
4.215120 4.170887 0.028982 
PRIMCOORD
36 1
Li	     10.50218      4.22735      6.29000        -0.037624      0.030964     -0.001675
Li	      8.29649      4.30173      4.17908         0.038155      0.086179     -0.008679
Li	      6.17359      2.25847      4.17686        -0.117801     -0.079940      0.067466
Li	      4.21866      6.21143      2.22536        -0.007391      0.003964      0.043458
Li	      6.36994      6.10261      4.20873         0.137422      0.037728      0.033138
Li	      4.44269      4.11731      4.16635        -0.071885     -0.148147      0.037104
Li	      6.28028      4.21977      6.04457        -0.007010     -0.023439     -0.038636
Li	      8.47225      6.36713     10.38754        -0.002404      0.029660     -0.040099
Li	      8.46453      8.37517      8.44633         0.021494      0.001824      0.023342
Ti	      8.21629      2.20611      6.23208        -0.590059      0.220091     -0.251608
Ti	      2.25045      4.25875      6.22683         0.444583     -0.069466     -0.187404
Mn	      4.21129      8.33589      4.23971        -0.008536      0.092522     -0.051362
Mn	      6.32906      6.28581      8.41187         0.082518     -0.143624      0.058428
Fe	      2.23578      4.16915      2.15491        -0.346994      0.264284      0.069415
Co	      4.20130      2.10911      2.27031         0.130578     -0.148545     -0.917430
Ni	      6.28088      4.20562      2.23191         0.066029     -0.094389     -0.025756
Ni	      4.27432      2.06653      6.18123         0.081158      0.008255     -0.115276
Ni	      4.26513      6.28587      6.24747         0.028177     -0.093048      0.013557
O	      6.34685      4.18491      4.14545         0.000006     -0.013684      0.051914
O	      2.12209      2.11675      1.95793         0.223930      0.111958      0.067075
O	      4.14905      4.18260      2.13923         0.002716     -0.204880      0.057312
O	      4.20027      2.10619      4.22608        -0.041731      0.053330      0.567393
O	      6.39213      2.09780      6.23976         0.677403      0.021444      0.091324
O	      8.40153      4.11163      6.37420        -0.026791     -0.361606      0.051335
O	      1.97206      4.19780      4.27529        -0.027107      0.055389      0.081063
O	      4.21870      6.45505      4.22786         0.016275      0.098382     -0.100019
O	      4.10695      4.21228      6.23150        -0.474424      0.021617      0.064921
O	      6.34460      6.40654      6.42779        -0.006821      0.073990      0.107296
O	      6.37926      4.33047      8.50878         0.058160      0.006417     -0.002785
O	      8.30606      6.21774      8.29682        -0.052568      0.038886      0.198152
O	      2.14929      6.23628      6.40538        -0.087646     -0.025128     -0.147580
O	      4.26724      8.37427      6.19531         0.011913      0.102747     -0.031087
O	      4.37690      6.29481      8.30372         0.019601      0.145871      0.134929
O	      6.35095      8.27073      8.28754        -0.193771     -0.051169      0.004047
O	      6.35030      6.18991     10.30779         0.033750     -0.072955     -0.082136
O	      8.60420      8.36906     10.61865         0.026696      0.024519      0.178862
