# total energy = -221.98792441 eV
 
CRYSTAL
PRIMVEC
-0.027545 6.392109 6.204456 
6.214176 -0.018784 6.195600 
4.129420 4.242622 0.000613 
PRIMCOORD
36 1
Li	      6.17615      0.10297      6.12823        -0.131936      0.010939      0.101901
Li	      8.20831      2.11546      6.15385         0.012427      0.144036      0.029201
Li	      6.16039      6.42011      4.25471        -0.006668      0.157430     -0.114813
Li	      8.19111      6.36460      6.24497         0.049929     -0.138911      0.064301
Li	      6.17506      4.34186      6.23959         0.166890     -0.054467      0.092710
Li	      0.01186      4.29866      4.16176         0.121885     -0.007378     -0.040778
Li	      2.04135      6.32569      4.13280         0.002632     -0.127442     -0.008852
Li	      6.19126      8.32080      6.13859         0.003811      0.055470     -0.134957
Li	      6.23766      6.32053      8.16138         0.015451     -0.020083      0.075427
Ti	      2.10248      6.33261      8.09936         0.048938      0.143212     -0.427462
Ti	      4.12056      8.50965      8.12492        -0.282562      0.076518     -0.221835
Mn	      8.28929      4.23654      4.27343        -0.111448      0.143988      0.743460
Mn	      6.17658      2.16650      8.23529        -0.225125      0.377912     -0.157392
Fe	      4.10317      4.25692      4.27042        -0.541928     -0.175647     -0.285296
Co	      8.10576      4.39138      8.20053         0.452966     -0.158630     -0.146986
Co	      4.13830      4.22326      8.23114         0.211465      0.019055     -0.103712
Cu	      6.22991      2.06910      4.27873        -0.009871     -0.062096      0.093388
Cu	      4.22390      6.37341      6.10531        -0.225935      0.023926     -0.051370
O	      2.17461      1.97266      2.07303         0.034109     -0.261559     -0.014224
O	      4.25986      4.09263      2.10810         0.332329     -0.136252     -0.012308
O	      4.18295      2.07273      4.10256         0.080748      0.046518      0.024621
O	      6.24352      4.11618      4.08172         0.069199     -0.052124      0.044976
O	      6.22137      2.08650      6.38695        -0.014766     -0.035142     -0.155265
O	      8.25955      4.21761      6.25769        -0.038546      0.029464     -0.690227
O	      2.14978      4.21030      3.90311         0.266371     -0.076516      0.761709
O	      4.14176      6.19592      3.97809         0.089805      0.180354      0.124489
O	      4.11749      4.32166      6.19883         0.024087     -0.022953      0.321441
O	      6.10604      6.38207      6.19684         0.082549     -0.040978     -0.048890
O	      6.17030      4.23888      8.31326        -0.865783     -0.346810      0.141141
O	      8.26896      6.35290      8.27683         0.278303      0.414969      0.031069
O	      2.15880      6.40655      6.27637        -0.032715     -0.056984      0.316305
O	      4.11355      8.43989      6.30908         0.085137     -0.034438      0.125653
O	      4.06516      6.50328      8.48781        -0.106284      0.016151     -0.463789
O	      6.13342      8.62265      8.17269         0.037595      0.006241      0.134521
O	      6.01409      6.47522     10.39762         0.071087      0.066744     -0.047122
O	      8.20159      8.67713     10.24728         0.055855     -0.104514     -0.101033
