# total energy = -226.81988357 eV
 
CRYSTAL
PRIMVEC
0.002860 6.391015 6.257196 
6.179096 0.006138 6.254173 
4.116150 4.255742 0.007402 
PRIMCOORD
36 1
Li	      4.11290     10.62551      6.25272        -0.067125      0.059218      0.040074
Li	      2.10608      8.44825      6.15488         0.011799     -0.004226     -0.069767
Li	      2.10291      6.37930      8.26657        -0.081596     -0.001016      0.020768
Li	      4.16107      6.33459     10.37134        -0.073444     -0.031435      0.038586
Li	      4.12424      4.21726      4.12594         0.057795     -0.013449     -0.024262
Li	      8.24556      6.37321      6.34277         0.003312     -0.023908      0.060957
Li	     10.19395      8.64221     10.47864        -0.045146      0.040269     -0.029006
Li	      8.23843      6.51521     10.43307         0.037401      0.073971     -0.040432
Li	      6.18590      6.41965      8.38109         0.024110      0.005109     -0.000993
Ti	      6.13491      6.35083      4.20319        -0.041248     -0.262241      0.195560
Ti	      6.19720      4.12129      6.27278         0.165921     -0.245395     -0.228435
Mn	      4.11414      8.48315      8.30914         0.007686      0.073101      0.096164
Mn	      8.22518      4.36770      8.38529         0.151541      0.037649     -0.075688
Fe	      2.09666      4.41624      6.21242         0.059729     -0.170325      0.063640
Co	      8.24206      8.53574      8.40658         0.015110     -0.035817      0.111719
Co	      6.20201      8.27990     10.42490         0.103327     -0.172182      0.016918
Co	      4.10625      6.33003      2.09714        -0.063337     -0.090965     -0.147868
Cu	      4.09248      6.43550      6.23201         0.079944      0.020945     -0.121920
O	      2.08148      2.07706      2.18456         0.200407     -0.095910      0.061522
O	      3.97178      4.19284      2.09176        -0.027260     -0.173867      0.014882
O	      4.07755      2.10554      4.01144        -0.129379      0.021761     -0.065211
O	      6.16436      4.33748      4.33227        -0.023728      0.199425      0.243430
O	      6.19133      2.22070      6.24036         0.062428      0.407108     -0.207540
O	      8.09598      4.29810      6.40230        -0.220221     -0.020766     -0.036690
O	      2.06011      4.10337      4.20121        -0.022735     -0.062718      0.010408
O	      4.23479      6.35523      4.13399         0.225056     -0.004665      0.138389
O	      4.15840      4.17019      6.37108         0.068554     -0.095039     -0.091761
O	      6.15911      6.37721      6.15324         0.020932     -0.023418     -0.134790
O	      6.26966      4.29457      8.27826         0.043459      0.156936      0.005394
O	      8.33658      6.46803      8.39613        -0.311834      0.023139      0.019513
O	      2.16319      6.31122      6.20101        -0.114641      0.157872     -0.050070
O	      4.21251      8.61229      6.38792        -0.100069      0.078295     -0.066198
O	      4.12585      6.46195      8.25199         0.001495      0.054104      0.144036
O	      6.07211      8.55408      8.32535         0.007331     -0.027689      0.085413
O	      6.15081      6.50625     10.46255         0.021586      0.090032     -0.010534
O	      8.14118      8.58704     10.34465        -0.047163      0.056096      0.033794
