# total energy = -93.22038468 eV
 
CRYSTAL
PRIMVEC
-2.058694 4.223079 -2.058375 
2.000459 4.164578 1.999476 
2.037756 0.029952 -6.095209 
PRIMCOORD
16 1
Li	      0.02318      4.19860     -4.12017        -0.020273      0.014239     -0.088681
Li	      1.96746      6.27828     -4.07068         0.017312      0.061610     -0.085934
Li	      1.95408      4.20031     -6.04609        -0.017153      0.018183     -0.065876
Li	     -0.00401      2.10681     -2.04733        -0.064520     -0.012587      0.023326
Mn	      0.00086      0.00096     -0.00111        -0.076155     -0.522080      0.281189
Mn	     -0.00898      6.27448     -2.09877        -0.071618      0.342819      0.035422
Ni	      1.98104      4.17580     -2.03848         0.099486     -0.018128      0.162665
Ni	      1.97460      2.10084     -4.01928         0.070970     -0.175726     -0.063818
O	     -0.02700      4.27679     -6.20851         0.077851     -0.067197     -0.320861
O	      1.89177      6.20687     -2.05062         0.029817      0.281731     -0.007945
O	      2.11431      4.12763     -4.06514         0.083027      0.262803     -0.258758
O	      1.98436      3.99036      0.03609         0.058440      0.047420      0.246619
O	      1.98961      2.14499     -1.95012         0.063301     -0.306239      0.087571
O	     -0.03785      6.42281     -0.13679         0.057764      0.195591      0.117368
O	     -0.09450      4.35634     -2.04767        -0.216204     -0.126749     -0.048612
O	      0.07704      1.92471     -0.01760        -0.092045      0.004311     -0.013675
