# total energy = -226.66741618 eV
 
CRYSTAL
PRIMVEC
-0.008161 6.280783 6.238953 
6.222081 -0.013604 6.244346 
4.143604 4.186039 -0.004519 
PRIMCOORD
36 1
Li	      2.14458      6.18026      8.30193        -0.063472     -0.033465      0.050196
Li	      4.14735      8.31049      8.31490         0.037226     -0.017057     -0.005663
Li	      6.27226      8.31370     10.36723        -0.067243      0.055674     -0.023568
Li	      6.19777      2.15375      8.30750        -0.028765      0.074507      0.005527
Li	      8.25432      6.28115      6.30768         0.007609      0.027297      0.132364
Li	      6.24520      4.11010      6.31218         0.012263     -0.118999      0.071102
Li	      6.17121      4.20056     10.36292         0.116773     -0.018619     -0.131210
Li	      8.26050      6.31156     10.33537         0.096427     -0.156804     -0.140534
Li	      6.21395      6.25851      8.34524         0.109742     -0.041965     -0.010789
Ti	      6.19257      0.10322      6.14472         0.050529      0.435774      0.329229
Ti	      4.20843      4.15346      4.03281        -0.020954      0.290944     -0.346992
Mn	      2.05871      2.09875      4.10445        -0.098735      0.096924     -0.313374
Mn	      6.21205      8.36819      6.26774         0.044625     -0.036511      0.213141
Fe	      8.36509      8.28801      8.40523         0.111378     -0.539436     -0.423431
Co	      8.18709      4.28258      8.33307        -0.270770      0.142902      0.115049
Co	      2.08887      8.35785      6.25553        -0.059792     -0.048215      0.280737
Co	      4.10713      6.26045     10.34266         0.328719     -0.391922      0.255277
Ni	      4.14449      6.28319      6.28899         0.024203      0.062689     -0.088396
O	      2.05140      2.27356      2.10908         0.112331     -0.366989      0.083437
O	      4.06472      4.21225      2.14111         0.302729     -0.062655      0.215994
O	      4.01423      2.17138      4.12459         0.135208     -0.689431      0.041172
O	      6.10483      4.12894      4.16398         0.550921     -0.231610     -0.021463
O	      6.27085      1.95214      6.25486        -0.015192     -0.502669     -0.133438
O	      8.38146      4.16195      6.22533         0.054069      0.003833     -0.950961
O	      2.16706      4.25713      4.28082         0.150899      0.164796      0.143946
O	      4.26480      6.15403      4.20694        -0.081716     -0.160038     -0.027993
O	      4.02630      4.20115      6.19502        -0.034505      0.015074     -0.136228
O	      6.18205      6.44193      6.11455         0.030069      0.038711     -0.060054
O	      6.17485      4.18700      8.30630        -0.012328      0.014605     -0.038535
O	      8.28287      6.28624      8.33480         0.034240      0.096850      0.019794
O	      2.00115      6.18161      6.29141        -0.153916      0.023021     -0.120444
O	      4.24130      8.41405      6.28299        -0.001252      0.120679     -0.078845
O	      4.14244      6.12243      8.32520        -0.097365      0.480009      1.022456
O	      6.32969      8.31289      8.17007        -0.303915      0.079582     -0.166254
O	      6.17755      6.28577     10.53834        -0.904103      0.006113     -0.108565
O	      8.29872      8.35300     10.39588        -0.095939      1.186400      0.347313
