# total energy = -218.90543265 eV
 
CRYSTAL
PRIMVEC
-0.000159 6.302643 6.217540 
6.255489 -0.025589 6.243322 
4.155467 4.204106 -0.002418 
PRIMCOORD
36 1
Li	      4.24471     10.39455      6.38926        -0.016374     -0.090532      0.035455
Li	      4.18970      2.14815      2.11561        -0.024362     -0.023120      0.047588
Li	      6.23783      8.40124     10.27415        -0.014382      0.000622      0.031511
Li	      4.25430      6.15295      2.14123         0.025558     -0.047488      0.053788
Li	      2.01451      2.15145      4.03120        -0.029032      0.053354     -0.023708
Li	      4.17458      4.17065      4.01469        -0.028314     -0.033537      0.065902
Li	      6.13861      8.46241      6.27281        -0.037210     -0.054494     -0.040721
Li	      4.10020      6.37271      6.25611         0.012352      0.038478     -0.041996
Li	      8.26194      8.43336      8.32632         0.022151     -0.013146     -0.021749
Ti	      4.22028      2.10923      6.15606        -0.061549      0.084882     -0.550309
Ti	      6.16105      4.22008      6.14916        -0.177663      0.136389     -0.139104
Mn	      2.12773      8.34844      6.26752         0.222603      0.006286      0.053851
Mn	      6.20280      6.36111      8.30710        -0.111889      0.063251     -0.071425
Fe	      2.14368      6.22679      4.20613         0.081997      0.144124     -0.089687
Cu	      4.16375      8.37452      4.15521         0.095017     -0.107313     -0.013978
Ni	      6.19707     10.43760      8.29170         0.093975     -0.011770      0.052815
Ni	      4.18978      6.27738     10.34404         0.010804      0.027666      0.036026
Ni	      2.16218      4.16136      2.10267         0.067338     -0.060902      0.009252
O	      2.11477      2.05965      1.94150        -0.039468     -0.019094     -0.021296
O	      4.18133      4.18353      2.10156         0.030949     -0.044179     -0.040209
O	      4.14118      2.04109      4.32511         0.110536      0.111351      0.544091
O	      6.29060      4.21611      4.25290        -0.100018     -0.032903      0.249216
O	      6.20032      2.24230      6.28362        -0.068298      0.074221     -0.016095
O	      8.26064      4.29703      6.24092        -0.033082      0.091899      0.007343
O	      1.99689      4.24027      4.11967         0.090553      0.011135      0.102275
O	      4.08993      6.39977      4.11190        -0.082510     -0.165643     -0.014131
O	      4.28044      4.07232      6.21336         0.229642     -0.161512      0.005576
O	      6.32321      6.23256      6.33690         0.101453     -0.081785      0.047218
O	      6.28953      4.35825      8.21349        -0.068547      0.066046     -0.178787
O	      8.19195      6.28164      8.29566        -0.031119      0.096832     -0.073706
O	      2.05488      6.26656      6.18571        -0.003163      0.050102      0.003085
O	      4.08852      8.43424      6.12943        -0.204998     -0.017356      0.189525
O	      4.26506      6.26510      8.32759         0.095235      0.031218     -0.111280
O	      6.24579      8.27279      8.31410        -0.014846     -0.142793     -0.015112
O	      6.27111      6.23091     10.22584         0.145706      0.126536     -0.027786
O	      8.38989      8.35100     10.53324        -0.289044     -0.106824     -0.043439
