# total energy = -219.43275763 eV
 
CRYSTAL
PRIMVEC
-0.008555 6.211946 6.471952 
6.135967 0.015558 6.447793 
4.102837 4.137325 -0.001637 
PRIMCOORD
36 1
Li	      6.10970      6.24724     12.82298         0.012114      0.007741     -0.027707
Li	      8.15903      2.15752      6.39593         0.020699     -0.025866     -0.056613
Li	      6.16050     10.30152      8.61174         0.038656     -0.043445     -0.075468
Li	      8.19060      4.16580      4.37362         0.015673     -0.030541      0.005070
Li	      2.10195      2.07789      4.31289        -0.020850      0.006171      0.049483
Li	      4.14473      4.04438      4.35782         0.004264      0.023843      0.043006
Li	      4.08304      2.03576      6.38179         0.020227      0.074085     -0.013673
Li	      8.08039      8.27755      8.68337        -0.035805      0.074784     -0.026282
Li	      6.18454      6.26538      8.64640        -0.049924     -0.020073     -0.008485
Ti	      4.11844      6.14947      2.14745        -0.016895     -0.115926     -0.263163
Ti	      4.00114      6.17123      6.55498        -0.146288      0.018651      0.241766
Mn	      6.19420      4.18024      6.37781        -0.225779      0.021995      0.167657
Mn	      6.08496      4.21140     10.77001        -0.182894      0.067145     -0.025570
Fe	      4.13654      2.10028      2.26254         0.068286     -0.077137     -0.129081
Cu	      6.17517      8.27297     10.72372         0.035107      0.052098      0.000092
Cu	      2.08564      4.14300      2.14402         0.013792      0.024346     -0.175052
Ni	      8.15644      6.22287     10.75708        -0.061073      0.039371      0.073825
Ni	      6.15410      8.23027      6.45639         0.050795     -0.050841     -0.002111
O	      2.05178      2.12730      2.20498        -0.030041      0.051526      0.025722
O	      4.11485      4.20237      2.14839         0.106487      0.142463      0.021631
O	      4.21775      2.07134      4.17616        -0.048132     -0.045345      0.203884
O	      6.14712      4.05037      4.51494         0.068074     -0.125864     -0.357677
O	      6.14101      2.24178      6.69330         0.005969     -0.123714      0.389078
O	      8.02677      4.19318      6.42311         0.156586     -0.018455      0.415646
O	      1.88782      4.16073      4.42791         0.170548     -0.087416     -0.304361
O	      4.09066      6.35018      4.27524         0.087524     -0.169606     -0.069215
O	      4.16946      4.23945      6.44243        -0.015496      0.170781     -0.002797
O	      6.06266      6.09788      6.40827        -0.046461      0.098812     -0.009078
O	      6.16987      4.08923      8.73453        -0.029427     -0.040066     -0.013587
O	      8.31870      6.15096      8.67127         0.041448     -0.001238     -0.037593
O	      2.12099      6.18036      6.39899         0.245353      0.025969      0.040930
O	      4.07379      8.21168      6.30656        -0.023926     -0.159162      0.304000
O	      4.04224      6.32353      8.40862        -0.031838     -0.035807     -0.320230
O	      6.05259      8.28299      8.46705         0.036324      0.009924      0.010773
O	      6.11111      6.14523     10.76913        -0.051427      0.178570     -0.048158
O	      8.21156      8.27782     10.72150        -0.181670      0.082226     -0.026663
