# total energy = -219.86226570 eV
 
CRYSTAL
PRIMVEC
0.024423 6.056180 6.958770 
5.966884 0.048827 6.933442 
3.980591 4.022347 0.030524 
PRIMCOORD
36 1
Li	      1.93124      2.01509      0.23765         0.001267     -0.008418      0.001211
Li	      5.95608      4.05711      2.51842        -0.022095     -0.044915      0.050875
Li	      5.99986      8.11253     11.54453         0.002971      0.007039     -0.065847
Li	      5.99923      2.00683      9.03983        -0.055321      0.081945      0.006089
Li	      5.97951      6.01838      4.63612         0.000236      0.003408     -0.009910
Li	      6.01664      4.02375      6.70934         0.005350     -0.018786      0.059895
Li	      0.02548      4.03427      4.63932        -0.022788      0.076873     -0.016497
Li	      5.97777      8.12545      7.26026        -0.006959      0.029418      0.019597
Li	      5.97070      6.09954      9.09009        -0.001128      0.023326     -0.045682
Ti	      7.86182      4.02865      9.32019        -0.353647      0.024240      0.180197
Ti	      4.02785      6.15895      6.91241         0.186722      0.108899     -0.007510
Mn	      0.05950      6.04284      6.96198         0.001132     -0.020331      0.028921
Mn	      7.94371      8.09674      9.27582         0.100478     -0.050320     -0.028628
Fe	      3.95097      2.10587      6.89434        -0.042112      0.051146      0.124509
Cu	      4.05477      8.03489      9.31335         0.116317     -0.024756      0.020068
Cu	      7.92972      4.04428      4.67324         0.089220     -0.037549     -0.044004
Cu	      4.06200      4.01529      4.63169         0.004052     -0.034934      0.006548
Cu	      7.93985      6.14686     11.65237        -0.100019      0.100273      0.013814
O	      5.97143      6.09502     11.95666        -0.053534     -0.039383     -0.048675
O	      8.00844      8.13163     11.18969        -0.050419      0.074937      0.125239
O	      2.04740      2.09507      2.37433         0.026464      0.193982     -0.049372
O	      3.96244      3.93055      2.04268         0.033430      0.062157     -0.061332
O	      3.96388      2.04159      4.90867         0.026313     -0.022189     -0.094191
O	      5.98132      4.03755      4.68251         0.023424      0.012348     -0.012033
O	      5.95133      1.91820      7.01273         0.071093     -0.059100     -0.053010
O	      8.02603      4.10143      7.17572         0.089501     -0.055916      0.120709
O	      2.10321      4.13721      4.28513        -0.078674     -0.121870     -0.208373
O	      3.93596      5.97999      4.95787         0.135158      0.013913      0.097117
O	      4.00360      4.10368      7.24720        -0.034902      0.112213     -0.026226
O	      5.91536      6.11468      6.95563        -0.279551     -0.021985     -0.044854
O	      5.99129      4.06481      9.26811         0.364070     -0.043417      0.033709
O	      7.96311      6.13539      9.06485         0.040247     -0.238686     -0.053303
O	      1.97386      6.07692      6.96253         0.034929     -0.056036      0.108760
O	      3.97508      8.06479      6.90319        -0.015173     -0.134584     -0.045678
O	      3.99224      6.04185      9.02911        -0.046686      0.074515     -0.141550
O	      6.03179      8.06586      9.29695        -0.189366     -0.017456      0.059418
