# total energy = -220.18672698 eV
 
CRYSTAL
PRIMVEC
-0.020763 6.264228 6.247377 
6.245267 0.010989 6.215814 
4.194384 4.186003 -0.023663 
PRIMCOORD
36 1
Li	      1.97609      2.11121      0.15949        -0.039131      0.010227     -0.010687
Li	      6.17384      2.17157      4.24936        -0.004517      0.040362      0.013828
Li	      0.03189      2.02921      1.99407        -0.028611     -0.015040     -0.002137
Li	      2.17363      4.09851      1.97276         0.010779     -0.028617     -0.014635
Li	      4.30237      4.15488      4.07886         0.036861     -0.009306     -0.040354
Li	      4.25721      2.06868      6.24576         0.019190      0.002273      0.057036
Li	      6.24692      4.13273      6.17489        -0.034921     -0.009249      0.032412
Li	      8.32436      6.28432     10.33377        -0.000439     -0.005122     -0.023909
Li	      4.17611      6.25823      6.24064         0.021518     -0.000835     -0.005710
Ti	      4.14824      8.22376      4.13089        -0.096004     -0.393016     -0.115297
Ti	      2.16730      4.13896      6.15890         0.265251     -0.166397     -0.067073
Mn	      6.24024      0.07856      6.21276        -0.071415      0.200631      0.032270
Mn	      8.34088      8.33736      8.28914         0.025297     -0.057737     -0.061318
Fe	      8.27907      4.29433      4.18442         0.061684     -0.121077      0.047865
Ni	      2.05019      0.06201      2.09582        -0.059213     -0.024775     -0.019087
Ni	      4.10503      2.12245      2.05940         0.108235     -0.037013     -0.060764
Ni	      2.08587      2.06914      4.12941        -0.057503     -0.005686      0.093967
Ni	      6.27661      6.28500      8.30529        -0.018354     -0.052368      0.074185
O	      2.12122      2.06274      2.10995        -0.139773      0.155670     -0.117975
O	      4.20049      4.14383      1.88883        -0.106049      0.067827      0.014715
O	      4.15013      2.06275      4.07297         0.142657      0.121155      0.140560
O	      6.31666      4.20152      4.15354        -0.078696     -0.120898      0.100969
O	      6.27974      1.91814      6.19417        -0.042250     -0.090825      0.030110
O	      8.49610      4.19194      6.14128         0.062151     -0.053121      0.132049
O	      1.97638      4.19061      4.23605        -0.089225      0.117144      0.085755
O	      4.17827      6.39464      4.18732        -0.119228      0.339522     -0.024310
O	      4.07241      4.23880      6.36112        -0.185613     -0.021082      0.027583
O	      6.22099      6.43766      6.24070         0.018505      0.310631     -0.060058
O	      6.10485      4.22828      8.38201        -0.015199     -0.119613      0.108514
O	      8.28206      6.47694      8.30487         0.190593      0.059732      0.003156
O	      1.93437      6.15241      6.25746         0.003266     -0.042298     -0.151002
O	      4.24381      8.44735      6.15276         0.031445     -0.018285     -0.123569
O	      4.17586      6.19552      8.37733        -0.015100     -0.088833     -0.086094
O	      6.36113      8.37739      8.22254         0.042119      0.015292     -0.044204
O	      6.17174      6.17374     10.46399         0.061672      0.046265      0.053096
O	      8.42336      8.40412     10.22654         0.100017     -0.005537     -0.019886
