# total energy = -221.90441195 eV
 
CRYSTAL
PRIMVEC
0.004249 6.306284 6.475829 
6.105196 0.023823 6.456407 
4.094571 4.215763 -0.009138 
PRIMCOORD
36 1
Li	      6.09446      2.18193      4.28345         0.006463      0.053410      0.066898
Li	      6.10147      2.25704      8.70625         0.023392      0.013724      0.055459
Li	      2.08537      4.15030      2.31370         0.091287     -0.031066     -0.004564
Li	      2.06070      2.22892      4.12189         0.002081     -0.022803      0.001673
Li	      4.04952      4.23029      4.19316        -0.026285     -0.031601     -0.006643
Li	      6.13925      4.28473      6.55955         0.025679     -0.057450     -0.014183
Li	      0.07936      4.16636      4.25244         0.058868      0.006886     -0.005172
Li	      2.08593      6.09000      4.25908        -0.012506     -0.021736     -0.008837
Li	      2.02333      4.19724      6.16538        -0.008738     -0.003407     -0.080970
Ti	      4.14518      2.33211      6.47363         0.245710      0.076119     -0.533141
Ti	      4.15760      6.29669      6.18547        -0.026016     -0.080878     -0.883262
Mn	      0.06561      6.24779      6.43714        -0.099797      0.032768     -0.049588
Mn	      8.11281      2.16335      6.49906        -0.131700      0.095929     -0.303428
Fe	      8.05489      4.24857      4.37446         0.180224      0.042500      0.093985
Fe	      6.14351      6.26302      8.71565        -0.144761      0.301968      0.168165
Cu	      4.12231      8.42543      8.62142        -0.126403      0.102141      0.078873
Cu	      8.13978      8.42029      8.72924        -0.250138      0.081345      0.081512
Ni	      6.12698     10.50356      8.62567         0.017573     -0.019379      0.128485
O	      2.07824      4.18214      4.22692        -0.086836      0.000699     -0.126616
O	      2.11713      2.04751      1.95992         0.042976      0.189004      0.049564
O	      4.15931      4.08259      1.90182        -0.281536     -0.137142     -0.067998
O	      4.03013      2.01063      4.58161         0.058698      0.303368      0.199181
O	      6.21812      4.26275      4.20848        -0.553155      0.044250      0.034062
O	      6.02992      2.21105      6.55518        -0.161885     -0.022517      0.093155
O	      8.26931      4.31814      6.44676        -0.009110      0.079306      0.247102
O	      4.11736      6.27447      4.38859         0.006533      0.011573      0.787405
O	      4.06829      4.22324      6.37694         0.007130     -0.016667     -0.009234
O	      6.07265      6.30283      6.59590        -0.116039      0.053772      0.073207
O	      5.97422      4.34522      8.70016         0.145435     -0.273311      0.003135
O	      8.08923      6.41589      8.48394         0.126740     -0.093198      0.096253
O	      2.07194      6.28345      6.46155         0.155800     -0.100801     -0.013760
O	      4.05793      8.20827      6.36857        -0.006973     -0.131980      0.048353
O	      4.08716      6.33649      8.73328         0.335424      0.018519     -0.253338
O	      6.11858      8.34481      8.73363         0.152232     -0.161342     -0.033401
O	      6.00317      6.32421     10.88477         0.290426      0.050890     -0.053410
O	      8.07451      8.61686     11.04840         0.069207     -0.352894      0.141078
