# total energy = -213.93643402 eV
 
CRYSTAL
PRIMVEC
0.004860 6.193087 6.224403 
6.291254 -0.044740 6.273976 
4.178391 4.145813 -0.013728 
PRIMCOORD
36 1
Li	      2.13284      2.03782      0.16509         0.000395     -0.017801      0.070536
Li	      2.04434      0.10552      2.04752        -0.067572      0.023295     -0.006157
Li	      4.05333      2.07315      2.04373        -0.067517      0.042603     -0.062805
Li	      8.36066      4.13279      4.19391        -0.006205     -0.033534      0.020011
Li	      4.25553      6.13068      2.16637         0.053815     -0.040357      0.013335
Li	      2.17619      4.06930      2.05118         0.060390     -0.053605     -0.053655
Li	      4.14954      4.23101      4.00659        -0.011215      0.014413     -0.078423
Li	      2.19857      6.14138      4.18162         0.024046      0.015092      0.024990
Li	      4.08156      6.24212      6.15007        -0.049000      0.002139      0.003111
Ti	      6.19384      2.07400      4.12100        -0.026812      0.070269      0.002541
Ti	      4.28928      4.21561      8.40432         0.184165      0.218461      0.158581
Mn	      8.37341      6.15523      6.26017         0.050287     -0.043493      0.088679
Mn	      2.06738      4.16673      6.19940        -0.051673      0.065641      0.074105
Ni	      4.18944      4.12273      0.07458        -0.040233      0.041870     -0.097692
Ni	      4.19635      8.22337      4.15942        -0.079523      0.121349     -0.040639
Ni	      2.04306      2.00584      4.04617         0.069907     -0.072934     -0.057536
Ni	      6.32784      4.10467      6.23766        -0.016573     -0.007500      0.086922
Ni	      6.29433      6.16624      8.35795         0.022097     -0.012166      0.049564
O	      2.11465      2.06958      2.08388        -0.032787     -0.030747     -0.053484
O	      4.16931      4.13020      2.01620         0.050041      0.042512      0.081846
O	      4.26190      2.03597      4.29527         0.134829     -0.000867      0.019593
O	      6.28810      3.98907      4.22145        -0.026312     -0.175835     -0.135344
O	      6.14977      2.05115      6.15812        -0.065300     -0.026970     -0.107384
O	      8.36336      4.27280      6.26738         0.021716      0.091450     -0.027342
O	      2.07799      4.07916      4.33721         0.152896      0.082308      0.029520
O	      4.22749      6.23695      4.16033        -0.100758     -0.160097      0.030540
O	      4.10016      4.00308      6.33290        -0.057135     -0.030720      0.022070
O	      6.43137      6.22914      6.22940         0.054858      0.111717     -0.024514
O	      6.20195      4.12402      8.31726        -0.213021     -0.085421      0.004659
O	      8.34016      6.27544      8.16376         0.118472      0.036136     -0.090771
O	      2.07306      6.01087      6.23501         0.069718     -0.082032     -0.008810
O	      4.34936      8.27572      6.19760         0.067799     -0.096460      0.138815
O	      4.24310      6.05248      8.27281        -0.101158     -0.289054      0.025027
O	      6.34588      8.22221      8.33634         0.050141      0.112486      0.038533
O	      6.28516      6.25389     10.42722        -0.017195      0.123196      0.076575
O	      8.29169      8.21284     10.30286        -0.155582      0.044654     -0.214997
