# total energy = -92.21394336 eV
 
CRYSTAL
PRIMVEC
4.087207 -0.000025 -0.000702 
-2.043088 4.095213 -6.308153 
-2.043782 4.123158 2.121583 
PRIMCOORD
16 1
Li	      2.04226      2.08082     -0.07870         0.000873     -0.039457     -0.015998
Li	     -0.00120      2.08252     -2.17093         0.001515      0.026271      0.020844
Li	     -2.04381      4.12248     -2.13796        -0.003559      0.006194     -0.043101
Li	      0.00037      4.01415     -4.04866        -0.002736     -0.006042      0.000845
Mn	     -2.04429      4.15055     -6.27392         0.003741      0.037328      0.224611
Mn	     -0.00091      4.11877     -0.05581         0.000294     -0.004834     -0.136793
Ni	     -0.00059      6.15528     -2.04453         0.002188      0.080810     -0.030635
Ni	     -2.04393      6.13001     -4.16398         0.002283     -0.011364     -0.027310
O	     -2.04392      6.15760     -2.17181        -0.001279      0.001227      0.214486
O	      2.04269      4.10471      0.17402        -0.004449     -0.005325     -0.005386
O	     -0.00012      6.32668     -4.08841        -0.002219      0.008457     -0.084935
O	     -0.00140      4.12907      1.96180         0.006419      0.118761     -0.186604
O	     -2.04376      4.11661     -4.36538         0.001903     -0.069608     -0.000562
O	      2.04333      1.87932     -2.17256        -0.003052     -0.128070      0.157076
O	     -0.00091      4.09636     -1.93180        -0.000945     -0.146166      0.112677
O	     -0.00099      2.04658      0.10542        -0.000978      0.131820     -0.199213
