# total energy = -93.25952781 eV
 
CRYSTAL
PRIMVEC
-2.079384 4.265522 -2.079062 
2.020564 4.206433 2.019571 
2.058236 0.030253 -6.156467 
PRIMCOORD
16 1
Li	      0.02365      4.28342     -4.20340         0.030587      0.002461      0.081668
Li	      2.00720      6.40511     -4.15291        -0.006493     -0.071254      0.053341
Li	      1.99356      4.28516     -6.16823        -0.006755     -0.006882      0.062282
Li	     -0.00409      2.14938     -2.08869         0.036949      0.001511      0.022835
Mn	      0.00088      0.00098     -0.00114         0.105904      0.515644     -0.342360
Mn	     -0.00916      6.40124     -2.14117         0.081457     -0.319560     -0.067093
Ni	      2.02107      4.26015     -2.07966        -0.173056      0.004937     -0.054492
Ni	      2.01450      2.14328     -4.10048        -0.111720      0.174048      0.088701
O	     -0.02754      4.36318     -6.33393         0.100602     -0.169605      0.247113
O	      1.92998      6.33226     -2.09204        -0.247214     -0.026719      0.007128
O	      2.15703      4.21101     -4.14727         0.025855     -0.006683      0.018539
O	      2.02445      4.07097      0.03681        -0.037522     -0.049178     -0.033279
O	      2.02980      2.18832     -1.98952        -0.036338      0.038187      0.161456
O	     -0.03862      6.55257     -0.13955         0.101556     -0.213568     -0.145991
O	     -0.09641      4.44435     -2.08904        -0.010391      0.129311      0.073511
O	      0.07860      1.96359     -0.01796         0.146581     -0.002649     -0.173359
