# total energy = -241.35216607 eV
 
CRYSTAL
PRIMVEC
0.016884 6.195926 6.443116 
6.244543 0.025239 6.434762 
4.166818 4.128543 0.012842 
PRIMCOORD
36 1
Li	      4.24344      8.25597      8.66687         0.038245      0.019318      0.002854
Li	      4.19825      0.14203      4.25079        -0.053918      0.012371     -0.037720
Li	      6.14973      2.05378      4.31303         0.031633      0.050391      0.022694
Li	      6.21461      2.06855      8.52010        -0.014538     -0.009814     -0.110156
Li	      2.15399      2.02378      4.29450         0.013511      0.021851      0.007986
Li	      6.26136      4.09985      6.35629        -0.006016     -0.014368     -0.087961
Li	      8.26083      6.17457     10.75985         0.021233     -0.007236      0.032390
Li	      6.23627      8.30687      6.47548         0.033203      0.019655      0.031619
Li	      6.21349      6.24125      8.74359        -0.007118     -0.016363      0.055704
Ti	      1.96719      4.01341      2.20422        -0.207633     -0.164780      0.326631
Ti	      8.26544      8.21732      8.74008        -0.088719     -0.056643      0.612351
Mn	      8.25988      8.31553     12.73556        -0.011432      0.023127     -0.101740
V	      4.33458      6.22791      6.41924         0.034436      0.009146     -0.065230
Cr	      2.09194      0.03152      2.17030        -0.012301      0.083306      0.062318
Cr	      4.22032      4.14540      4.27323        -0.064326      0.051784      0.056562
Cr	      4.16263      2.09870      6.40373        -0.043829      0.094482     -0.053781
Co	      6.29744      6.20191     12.80291         0.010019     -0.031693      0.032232
Cu	      0.04055      4.14140      4.33263        -0.085016     -0.175788      0.055907
O	      2.07152      2.12662      2.12549         0.014679      0.205902      0.022260
O	      4.18859      4.13138      2.22684        -0.023667      0.002800     -0.070696
O	      4.14741      2.16680      4.42119         0.035572     -0.126078     -0.041541
O	      6.19043      4.17460      4.15728         0.067314     -0.015296     -0.011931
O	      6.15274      2.04389      6.42602        -0.124787      0.082140      0.001469
O	      8.31267      4.23436      6.62539         0.043445      0.045743     -0.013609
O	      2.22317      4.18215      4.08131         0.133930     -0.032922     -0.218347
O	      4.16257      6.22669      4.49282         0.078056     -0.098326     -0.023486
O	      4.19681      4.16976      6.39216        -0.011451     -0.080173      0.030942
O	      6.15335      6.21518      6.47185         0.139640      0.031864      0.005894
O	      6.30405      4.13834      8.60186         0.109936     -0.017433     -0.112626
O	      8.32177      6.28029      8.47460        -0.036513      0.022689      0.012751
O	      2.26686      6.19047      6.57246        -0.095495     -0.047413      0.005165
O	      4.20656      8.18530      6.45513         0.095241      0.085046      0.054947
O	      4.14335      6.10141      8.48882         0.029065     -0.049627      0.085453
O	      6.38715      8.34111      8.58503         0.162331     -0.030175      0.006550
O	      6.25419      6.08379     10.80092         0.008373      0.168377      0.007796
O	      8.28082      8.24674     10.57403        -0.213103     -0.055864     -0.583654
