# total energy = -240.03889658 eV
 
CRYSTAL
PRIMVEC
-0.003536 6.266395 6.364554 
6.362321 -0.035795 6.396752 
4.213738 4.171018 0.004208 
PRIMCOORD
36 1
Li	      4.35941     10.35729      6.46689        -0.019486      0.017009     -0.029948
Li	      2.02533      6.25465      8.35517         0.031060      0.009949      0.018734
Li	      4.17444      6.18530      2.27091        -0.048493     -0.011043      0.081034
Li	      2.17344      4.18899      2.27056        -0.001039      0.034215      0.111914
Li	      0.13727      4.07885      4.26977        -0.023376      0.003391     -0.012941
Li	      2.17700      6.17249      4.27593         0.049583     -0.030940      0.021697
Li	      2.05068      4.30869      6.30328        -0.005713      0.046426     -0.034593
Li	      4.09591      6.32079      6.28127        -0.024318      0.030828     -0.065806
Li	      8.39956      8.25875      8.48926        -0.026131     -0.022807     -0.015374
Ti	      4.30371      6.13238     10.48792         0.097888     -0.323325     -0.251251
Ti	      6.29016      4.18070      6.55155        -0.042338      0.112505      0.306358
Mn	      2.14196      8.26194      6.44194         0.002164      0.028264     -0.034624
V	      8.49780      6.18640      6.49470        -0.073325     -0.032965      0.106869
Cr	      4.21673      2.13390      2.10438         0.038212      0.050953      0.040060
Cr	      6.33909      8.36170     10.57375         0.071915     -0.005594     -0.057345
Cr	      2.04761      2.14443      4.21557        -0.251694      0.097967      0.145911
Co	      4.12322      4.30486      4.17751        -0.036401     -0.454183     -0.041102
Ni	      6.38292      6.26689      8.50642         0.020855     -0.033235     -0.074263
O	      2.21109      2.10399      2.23942        -0.016276     -0.021861     -0.075531
O	      4.24787      4.08295      2.19740        -0.098630      0.233620      0.396579
O	      4.26503      1.98448      4.29364         0.039035      0.056917     -0.064564
O	      6.47232      4.15552      4.32090         0.100755     -0.045110      0.000417
O	      6.40486      2.16077      6.27832         0.037797     -0.021670     -0.037828
O	      8.35387      4.12572      6.26800         0.013119     -0.073056     -0.047377
O	      2.08866      4.08907      4.31596         0.162794     -0.047207     -0.035864
O	      4.31634      6.27357      4.24135         0.223563     -0.041657      0.024059
O	      4.38712      4.02598      6.28958         0.010986      0.192286     -0.156012
O	      6.40040      6.12820      6.32511         0.029155     -0.136765     -0.072788
O	      6.33204      4.19459      8.36101        -0.046396     -0.147156     -0.354405
O	      8.41481      6.21784      8.38530         0.155324      0.023323     -0.079634
O	      2.11053      6.40236      6.33950        -0.066553      0.058470      0.067389
O	      4.08383      8.35125      6.51485        -0.015106      0.057517     -0.031301
O	      4.27269      6.30813      8.61759        -0.116916      0.004085      0.210124
O	      6.24812      8.30853      8.59408        -0.037435      0.142753      0.008541
O	      6.20931      6.34257     10.62148        -0.147139     -0.009511      0.051638
O	      8.34941      8.42927     10.57575         0.012558      0.257606     -0.018769
