# total energy = -236.57343661 eV
 
CRYSTAL
PRIMVEC
-0.006835 6.466730 6.174445 
6.104708 0.011409 6.155546 
4.081081 4.309920 -0.003343 
PRIMCOORD
36 1
Li	      4.05539      4.29092      0.14730        -0.022446      0.058505     -0.080284
Li	      4.08872      2.27759      1.95170        -0.006252      0.047024      0.055566
Li	     10.16592      6.40814      8.13321        -0.019537     -0.030020     -0.025326
Li	      8.24059      4.36323      8.09456         0.008897      0.044859     -0.042899
Li	      4.06035      4.29705      4.09329         0.052259     -0.014062      0.002983
Li	      8.15567      6.59139      6.29703         0.006892      0.049243      0.012250
Li	      4.07146      6.38910      6.25476         0.012105     -0.058065      0.031695
Li	      4.13007      4.37342      8.08077        -0.047154      0.023505      0.093538
Li	      6.05405      6.35502      8.12913        -0.006292     -0.043828     -0.009910
Ti	      2.07858      2.21017      4.13653         0.172209      0.044884      0.248283
Ti	      2.09806      6.40036      4.01990         0.021815      0.019840     -0.372283
Mn	      4.08451      6.49514     10.26329        -0.017699     -0.177299      0.011089
V	      6.01851      2.15973      4.07744         0.069432      0.069883     -0.017909
Cr	      2.08110      2.16439      0.07099        -0.222091     -0.046029     -0.075008
Cr	      6.05817      4.31279      2.00790         0.028532      0.032569     -0.150419
Cr	      6.10973      4.32142     10.19833        -0.075355      0.087988     -0.084147
Cu	      6.14608      8.57193      6.29709        -0.058774      0.003450      0.175817
Ni	      6.01787      4.28250      6.28099         0.222949     -0.057709      0.076175
O	      2.04678      2.07245      2.10430         0.000826      0.007667      0.083769
O	      4.13102      4.32615      2.06584        -0.034043      0.028283      0.034388
O	      4.02228      2.18527      4.12110        -0.290722     -0.077149      0.007951
O	      6.12727      4.37436      4.05901         0.132396      0.023723     -0.000829
O	      6.15930      2.22935      6.03187         0.055895     -0.100597      0.381581
O	      8.11424      4.18291      6.02633         0.057729      0.016851     -0.026543
O	      2.00728      4.31771      4.14360        -0.059307     -0.004744     -0.057617
O	      4.08118      6.58858      4.09002        -0.048075     -0.015761      0.022353
O	      3.99119      4.30386      6.16886        -0.241282      0.063882     -0.239737
O	      6.09631      6.34093      5.97058        -0.002923      0.047980     -0.209200
O	      6.12380      4.34630      8.26923         0.006578     -0.057409      0.162368
O	      8.13537      6.45921      8.39824         0.004112     -0.010558      0.382206
O	      2.05190      6.62527      6.16216         0.003501      0.125797     -0.111439
O	      4.08981      8.63170      6.06199         0.170944     -0.029711      0.121638
O	      4.01553      6.47330      8.38617         0.042061      0.011346     -0.095453
O	      6.10647      8.75237      8.31017         0.012671      0.033120     -0.245596
O	      6.12969      6.45161     10.27070        -0.027364     -0.086513      0.008083
O	      8.13116      8.48096     10.35470         0.097515     -0.030944     -0.067132
