# total energy = -238.95571206 eV
 
CRYSTAL
PRIMVEC
0.054844 6.304152 6.270517 
6.305406 0.064546 6.261467 
4.230280 4.223339 0.015982 
PRIMCOORD
36 1
Li	      4.32115     10.49292      6.28971         0.005899     -0.030745     -0.031598
Li	      2.22915      8.36659      6.29747         0.008176      0.028982     -0.031684
Li	      4.23317      2.23624      2.04339         0.046170      0.035991     -0.066304
Li	      6.22835      2.09896      4.23041        -0.026482     -0.024962     -0.019912
Li	      2.22844      4.20448      2.10626         0.051370     -0.014371     -0.066561
Li	      4.17826      4.13957      4.13512         0.006439     -0.056463     -0.007088
Li	      4.23401      2.13998      6.20758        -0.027533     -0.017602      0.012604
Li	      2.06019      4.27176      6.22468        -0.032865      0.028003      0.027535
Li	      6.37211      6.38296      8.36111        -0.050986      0.039155     -0.005741
Ti	      6.43272      4.17133      6.27521         0.354148     -0.111143     -0.368664
Ti	      8.30318      8.40419      8.36502        -0.267627      0.110643      0.170273
Mn	      4.25678      6.25077      2.09709         0.079457     -0.011346     -0.044061
V	      4.22850      0.13503      4.18772         0.321256     -0.399077     -0.053349
Cr	      2.16405      2.15996      4.19819        -0.067976     -0.122582      0.392271
Cr	      0.09064      4.25533      4.20472        -0.252149      0.068922      0.059603
Cr	      4.24380      6.38519      6.29392         0.132436      0.081273      0.193160
Cu	      6.25897      4.24361      2.03499         0.072483     -0.136480      0.002604
Cu	      2.10987      6.27135      4.23287        -0.009981      0.112977      0.103303
O	      2.00544      2.02067      2.20572         0.002382      0.169509     -0.256625
O	      4.28311      4.35339      2.08628        -0.108457     -0.067708      0.020543
O	      4.14283      2.07127      4.14799         0.003918      0.374179     -0.057547
O	      6.38508      4.32355      4.34591        -0.335337      0.061911      0.058595
O	      6.29586      2.31263      6.24299        -0.004004      0.091842     -0.027187
O	      8.32945      4.27651      6.22204        -0.035885      0.055296      0.445018
O	      2.06069      4.13767      4.16242         0.391563     -0.187576     -0.088234
O	      4.37068      6.42370      4.30142        -0.136752     -0.031864     -0.170574
O	      4.35179      4.31242      6.42298        -0.111193     -0.016563      0.005543
O	      6.28399      6.25348      6.27130         0.103739      0.005726      0.080829
O	      6.29487      4.13142      8.34806         0.061481     -0.012347      0.038217
O	      8.53454      6.47769      8.47253        -0.061973     -0.037261     -0.263174
O	      2.26662      6.32867      6.14316        -0.298635     -0.056237      0.052818
O	      4.26014      8.36850      6.19640         0.045766     -0.016921      0.119758
O	      4.16706      6.26001      8.35337         0.059352     -0.077283     -0.134180
O	      6.46688      8.48697      8.37007         0.141833     -0.052147     -0.005504
O	      6.28512      6.30093     10.40496         0.141103      0.121604      0.011854
O	      8.58586      8.59749     10.31742        -0.201135      0.094664     -0.096542
