# total energy = -244.45899035 eV
 
CRYSTAL
PRIMVEC
0.002338 6.320336 6.324356 
6.379874 -0.045944 6.372852 
4.243436 4.236126 -0.020988 
PRIMCOORD
36 1
Li	      6.39446      6.29960     12.46618        -0.015417     -0.029950      0.003647
Li	      6.49557      8.18500     10.58099        -0.009984      0.026633     -0.017145
Li	      8.54047      6.40240      6.48769         0.010475      0.028071     -0.001176
Li	      6.28783      4.17910      6.46399         0.020522      0.001533      0.070773
Li	      6.33124      4.36104     10.46538        -0.065534     -0.069171     -0.011533
Li	      8.28767      6.37386     10.50147         0.031329      0.020223     -0.000904
Li	      2.22458      4.21639      6.30699        -0.002855      0.006693      0.013631
Li	      8.57353      8.26728      8.43982        -0.011241      0.020054     -0.006057
Li	      6.50724      6.25233      8.60840        -0.011999     -0.013576     -0.077815
Ti	      4.42479      8.46416      8.34572         0.424336     -0.303382     -0.188343
Ti	      6.36409      6.37814      4.32704         0.028717      0.052633      0.188020
Mn	      4.36912      6.22851     10.55176        -0.055972      0.046626      0.020790
V	      8.39069      2.11530      6.30301         0.056183      0.103522      0.072194
Cr	     10.55232      6.34929      8.44251         0.110404     -0.085325      0.043754
Cr	      4.25487      4.19112      4.26899         0.027880     -0.005078      0.131249
Cr	      4.24443      6.31400      6.32842        -0.059472      0.063448      0.083464
Fe	      6.34735     10.50018      8.39766         0.175517      0.065482     -0.029635
Co	      8.39066      4.28414      8.46602        -0.260218     -0.070914     -0.002330
O	      2.07194      2.14093      2.14029        -0.011500     -0.064453      0.084570
O	      4.21004      4.15084      2.21535        -0.056673      0.055562     -0.016592
O	      4.12344      2.14518      4.11698        -0.105397      0.100985     -0.028562
O	      6.32094      4.35428      4.14054        -0.054435      0.061878      0.123044
O	      6.49029      2.00271      6.48181        -0.135954      0.077558      0.017585
O	      8.54093      3.96315      6.41304        -0.039615     -0.096594     -0.022308
O	      2.21780      4.06591      4.20592         0.083672     -0.148066      0.084594
O	      4.35973      6.23288      4.22382         0.079378      0.011264     -0.012765
O	      4.23552      4.32976      6.23062         0.005812     -0.090082     -0.004188
O	      6.30105      6.32601      6.17032         0.006689      0.043617     -0.231940
O	      6.34357      4.04834      8.48447         0.092897      0.053978     -0.026378
O	      8.60656      6.27439      8.43811        -0.090171      0.136721      0.014557
O	      2.23443      6.48606      6.39175         0.063115     -0.012389     -0.131318
O	      4.17025      8.37486      6.45035         0.098759      0.054788      0.145026
O	      4.24958      6.47712      8.34896         0.045381      0.145458     -0.053610
O	      6.24613      8.40893      8.41862        -0.403887     -0.044519     -0.025519
O	      6.36854      6.27588     10.55405         0.027462     -0.017077      0.014036
O	      8.45606      8.39118     10.75170         0.001792     -0.126152     -0.222816
