# total energy = -242.20120992 eV
 
CRYSTAL
PRIMVEC
-0.009739 6.321536 6.284003 
6.364986 0.002639 6.272003 
4.242894 4.205679 0.002289 
PRIMCOORD
36 1
Li	      4.27448     10.39926      6.30832         0.007597      0.037684     -0.070389
Li	      2.34562      8.35774      6.28379         0.103941     -0.000358     -0.022429
Li	      4.21945      8.42491      8.20924        -0.000108     -0.030027     -0.004313
Li	      4.19635      4.33039      4.16010        -0.006663      0.019643      0.019534
Li	      6.34117      4.20092      6.32938         0.001308     -0.012965     -0.009556
Li	      4.26825      8.27779      4.28384         0.046811      0.048143     -0.030984
Li	      2.26057      6.32222      4.28495        -0.000642      0.016684      0.013432
Li	      4.15100      6.43332      6.19063         0.014858     -0.032857      0.001074
Li	      4.25876      4.23510      8.36986        -0.024763     -0.026555      0.012447
Ti	      6.44179      8.38765     10.44997         0.226082     -0.308538      0.230611
Ti	      4.29577      2.21649      6.31975         0.128084      0.221872      0.173457
Mn	      6.23114      6.18722      8.32681        -0.004378     -0.008666      0.039292
V	      8.45701      4.16983      4.23062         0.115207      0.020135      0.073913
Cr	      2.15244      4.17047      2.07285         0.027093     -0.027651      0.034663
Cr	      6.30558      6.30876      4.18202        -0.000063     -0.000598      0.020875
Cr	      2.04617      4.25684      6.24539        -0.005277      0.081302      0.001149
Fe	      2.05386      0.06456      1.99828        -0.035881      0.060810     -0.082127
Cu	      4.21356      6.35442      2.19300        -0.092524     -0.002600     -0.131449
O	      2.23831      2.12240      2.15447         0.121220      0.046459      0.039657
O	      4.24231      4.36024      2.07873        -0.110790     -0.142921      0.002602
O	      4.21924      1.99943      4.30438        -0.006603      0.086553      0.072053
O	      6.36747      4.19799      4.11472        -0.046251     -0.040937     -0.014086
O	      6.21563      2.20411      6.09927        -0.198455      0.009973     -0.268631
O	      8.48214      4.31362      6.29279        -0.034753      0.046603      0.062958
O	      2.15870      4.10073      4.16911         0.024768      0.007182     -0.018635
O	      4.36037      6.29367      4.19129         0.057316      0.019007      0.077058
O	      4.14289      4.08279      6.33569        -0.024507     -0.326533     -0.026483
O	      6.43484      6.39558      6.19246         0.039414     -0.048886     -0.027635
O	      6.47948      4.11057      8.36856         0.054971      0.142713      0.039102
O	      8.38501      6.19506      8.24949        -0.103803      0.037672     -0.103400
O	      2.13372      6.25502      6.35268         0.015387      0.003473     -0.066085
O	      4.35285      8.42581      6.25853         0.071721     -0.019248     -0.001235
O	      4.13062      6.29303      8.54518         0.032935      0.011250     -0.123115
O	      6.29198      8.52111      8.41787        -0.006092     -0.081527      0.081307
O	      6.29866      6.51164     10.44587        -0.001160      0.267599      0.012593
O	      8.33607      8.47319     10.50859        -0.386004     -0.073887     -0.007224
