# total energy = -242.73523757 eV
 
CRYSTAL
PRIMVEC
0.014945 6.322661 6.445348 
6.259895 0.018606 6.441210 
4.166193 4.205664 0.019503 
PRIMCOORD
36 1
Li	      6.30478     10.38353      8.68163        -0.057003      0.028913      0.021951
Li	      4.30923      8.39213      8.63698        -0.047729      0.007405     -0.004553
Li	      6.23025      8.49098     10.56610         0.034552      0.000629     -0.095262
Li	      6.31966      6.30077      4.40435        -0.000906     -0.040662      0.000001
Li	      4.22402      4.10345      4.37604         0.038433     -0.044504      0.002706
Li	      4.13216      2.19855      6.34622         0.058520     -0.024575     -0.015928
Li	      4.22691      6.28462      6.53600        -0.028576     -0.014476      0.014652
Li	      4.07420      4.30531      8.54785         0.023820     -0.022614     -0.065823
Li	      6.20754      6.42984      8.56181         0.026038      0.005746     -0.052511
Ti	      4.15335      6.46320     10.54443        -0.127541      0.272568     -0.385658
Ti	      4.19908      6.26782      2.25306         0.041706     -0.136109      0.119202
Mn	      6.26515      6.34462     12.87236         0.002251      0.079280      0.041143
V	      2.16191      8.36246      6.47349        -0.075959      0.049035      0.031819
Cr	      2.06837      4.21969      2.20896         0.063227     -0.040599     -0.011254
Cr	      6.18988      4.28057      6.44806         0.009876     -0.041314     -0.000165
Cr	      8.31955      6.37003     10.70520         0.009618      0.016981      0.039047
Fe	      6.37479      8.26874      6.59371        -0.137889      0.169175     -0.182364
Ni	      6.25974      4.24817     10.73565        -0.004998     -0.020351     -0.046143
O	      1.98885      2.18716      2.14777        -0.089598     -0.001124      0.019219
O	      4.10058      4.34192      2.16913         0.008011      0.116757      0.115675
O	      4.21982      1.96530      4.28909        -0.042252     -0.272293     -0.002780
O	      6.39278      4.20049      4.44572         0.102672      0.012225     -0.040427
O	      6.32637      2.21024      6.61086        -0.021243      0.114793      0.085930
O	      8.26996      4.13617      6.56218        -0.120176      0.081091      0.017050
O	      2.04502      4.32466      4.23831         0.150088     -0.002868      0.047882
O	      4.08748      6.38818      4.15460        -0.007127     -0.139222     -0.171631
O	      4.17562      4.21803      6.41186         0.032514      0.028961     -0.007602
O	      6.25259      6.31893      6.45448        -0.000717     -0.084738     -0.026842
O	      6.30941      4.14669      8.53294         0.014692     -0.012276     -0.014424
O	      8.43345      6.25160      8.68954         0.044238      0.016978      0.030087
O	      2.10241      6.37319      6.28332         0.116351     -0.162857     -0.001510
O	      4.15863      8.40880      6.41591         0.134719     -0.090756      0.066778
O	      4.13381      6.33505      8.74499         0.037659      0.018985      0.414206
O	      6.26726      8.45297      8.45049        -0.025075     -0.016889      0.119507
O	      6.23485      6.31013     10.72055         0.009897      0.129865     -0.064323
O	      8.38086      8.42592     10.82174        -0.172092      0.018842      0.002345
