# total energy = -245.48548349 eV
 
CRYSTAL
PRIMVEC
-0.000945 6.397792 6.359755 
6.190496 0.020305 6.338233 
4.137825 4.261614 0.002900 
PRIMCOORD
36 1
Li	      4.14580     10.60787      6.37345         0.047868     -0.048199     -0.008140
Li	      6.16662     10.56950      8.48661         0.002682     -0.014855     -0.031368
Li	      6.14494      2.25587      8.48022         0.030333      0.026453      0.076910
Li	      6.15873      6.40303      4.33553        -0.046250      0.008969      0.034792
Li	      6.18597      4.32790      6.44381        -0.017560      0.024284     -0.002345
Li	      6.23849      4.29674     10.49404         0.003490     -0.018528     -0.012556
Li	      6.21138      8.44986      6.43297        -0.011275     -0.024147      0.062200
Li	      4.21877      4.20969      8.35400         0.050879     -0.027140     -0.061986
Li	      6.21651      6.38901      8.41586        -0.013011      0.023926     -0.038841
Ti	      1.99550      2.07613      0.08476         0.040295     -0.303192      0.175842
Ti	      4.12467      6.36671     10.52668         0.053454      0.006095     -0.302753
Mn	      4.25906      6.33983      6.41322        -0.093385     -0.000062     -0.017507
V	      4.16764      4.32575      4.22451         0.144967     -0.210218      0.032278
Cr	      8.20337      6.43873     10.52752         0.195440     -0.033694      0.040431
Cr	      4.15275      8.55916      8.47126         0.049478      0.011950     -0.028643
Cr	      8.23858      6.42533      6.37779         0.040398      0.075188     -0.001741
Fe	      6.24808      8.55731     10.48284        -0.072177      0.009868      0.038616
Fe	      8.10132      4.32148      8.49221         0.203159     -0.020226      0.022061
O	      2.08400      2.20306      1.98976        -0.027010     -0.040118     -0.221622
O	      4.05115      4.14197      2.22899        -0.116579     -0.017885     -0.044712
O	      4.09423      2.11180      4.25939        -0.041129     -0.178258      0.021707
O	      6.31673      4.30805      4.21031         0.062532      0.046765      0.008525
O	      6.26014      2.14377      6.28098         0.070436      0.013605      0.059627
O	      8.28109      4.27319      6.27427        -0.025827     -0.010996     -0.049470
O	      2.07735      4.42760      4.17428         0.059419     -0.001003      0.046002
O	      4.03741      6.27167      4.24185        -0.005205      0.338600     -0.034616
O	      4.15703      4.16105      6.25485        -0.140229     -0.086356      0.000810
O	      6.29575      6.42283      6.33686         0.150200     -0.033348      0.026370
O	      6.25044      4.24488      8.46726        -0.170557      0.055462     -0.044991
O	      8.27840      6.34349      8.43797        -0.006652      0.061755     -0.010436
O	      2.04947      6.56611      6.21878        -0.111328      0.260982      0.057188
O	      4.01073      8.52296      6.49851        -0.119655      0.088801     -0.013719
O	      4.12323      6.49626      8.61082        -0.034471     -0.001745      0.318971
O	      6.11637      8.58507      8.50117        -0.034515     -0.040096     -0.141489
O	      6.13698      6.42098     10.58448        -0.150231     -0.045960     -0.005800
O	      8.35160      8.61686     10.68736         0.032016      0.103324      0.050404
