# total energy = -239.07264469 eV
 
CRYSTAL
PRIMVEC
0.034695 6.266079 6.413209 
6.139801 0.035547 6.411519 
4.100207 4.183180 0.017283 
PRIMCOORD
36 1
Li	      8.06340      2.02885      6.40216        -0.000438     -0.009300      0.002426
Li	      2.01821      0.06521      2.13624         0.017162     -0.021643     -0.045882
Li	      6.17827      2.17631      4.38177        -0.018882     -0.010102     -0.044647
Li	      6.17201      2.09514      8.45076         0.000294      0.021144     -0.043200
Li	      4.22525      4.25694      4.24209        -0.074961      0.000129     -0.083633
Li	      6.15793      4.12344      6.23833        -0.012149      0.001318      0.001199
Li	      2.01672      6.29789      4.40211         0.013441     -0.013703      0.003324
Li	      2.11164      4.27554      6.36268         0.026107     -0.042995      0.003973
Li	      6.16836      6.29080      8.68230         0.019333      0.012679      0.142826
Ti	      4.26653      8.35866      8.54334         0.286120      0.058952      0.077485
Ti	      8.15225      4.28367      8.56204        -0.066839      0.150235      0.106625
Mn	      4.10474      2.14456      6.37692         0.050937      0.121871      0.015432
V	      8.17524      8.34935      8.61540         0.006746     -0.048649     -0.020721
Cr	      2.05791      2.06013      4.23082        -0.087558      0.091038      0.039459
Cr	      4.09482      8.36637      4.34966         0.058033      0.037167      0.021156
Cr	      4.09559      6.25371      6.42398        -0.020341     -0.094067     -0.029450
Ni	      0.10992      6.30039      6.38067         0.063556     -0.002836     -0.004899
Ni	      8.16042      4.17386      4.32186         0.042755      0.006487      0.010957
O	      2.12188      2.21743      2.17420         0.064154      0.021902     -0.023772
O	      4.02154      4.06799      2.09424        -0.067764     -0.111159      0.114654
O	      4.07955      2.07712      4.09467         0.006300      0.135170     -0.151615
O	      6.17087      4.29665      4.24388        -0.130838     -0.051460     -0.042058
O	      6.00696      2.09815      6.39627        -0.055781      0.127987      0.030324
O	      8.17309      4.29974      6.54613        -0.090730     -0.003456      0.113084
O	      2.02725      4.13702      4.12512        -0.022590     -0.052325     -0.093106
O	      4.17401      6.33095      4.42306         0.018120     -0.031964      0.002537
O	      4.13556      4.17948      6.60388         0.014857      0.018139     -0.049998
O	      6.23247      6.32486      6.25027        -0.021084     -0.026618      0.010110
O	      6.15754      4.18949      8.71202         0.130617     -0.011768     -0.033009
O	      8.18903      6.22327      8.58531         0.008615     -0.168779      0.043788
O	      2.14135      6.27090      6.42006         0.149856     -0.031304      0.052646
O	      4.14968      8.29907      6.47417        -0.050188     -0.068289      0.066242
O	      4.14668      6.33351      8.47537         0.009807      0.128730     -0.047157
O	      6.15204      8.35643      8.59363        -0.370577      0.007953     -0.029452
O	      6.10687      6.18031     10.78498         0.105610     -0.017330     -0.151429
O	      8.24410      8.40248     10.61667        -0.001701     -0.123153      0.035782
