# total energy = -245.15996488 eV
 
CRYSTAL
PRIMVEC
0.012009 6.363359 6.410092 
6.303578 -0.004485 6.426444 
4.182537 4.232997 0.016920 
PRIMCOORD
36 1
Li	      6.36148      6.28575     12.69871        -0.003909      0.010634     -0.028896
Li	      6.38699      8.35412     10.63037        -0.017560     -0.028194     -0.103723
Li	      2.06878      4.26020      2.20596        -0.017105      0.036434      0.034140
Li	      6.33489      4.29767      6.41794         0.000951     -0.007232      0.037523
Li	      6.37241      4.35674     10.71076         0.022056      0.021849      0.001845
Li	      8.21637      6.38818     10.75424         0.040378     -0.005384     -0.019771
Li	      6.17518      8.38885      6.44848        -0.006762     -0.014948      0.026186
Li	      4.28957      6.47375      6.45968        -0.048075      0.004482      0.011969
Li	      6.32025      6.36510      8.59007         0.044686      0.000684     -0.028309
Ti	      6.23066      2.25858      8.52900        -0.144944      0.287935     -0.172896
Ti	      4.12609      4.29677      4.44908        -0.172630      0.067132      0.197708
Mn	      8.43595      8.47211     12.77338        -0.018091     -0.091767      0.023484
Mn	      8.35483      6.22890      6.46903         0.041252     -0.052513      0.001856
V	      2.10371      6.35687      8.47957         0.004479      0.015394      0.030986
Cr	      4.23322      8.51048      8.53000        -0.074393      0.000240     -0.037337
Cr	      6.26662      6.35668      4.35907         0.008126      0.044082     -0.006704
Fe	      4.40408      6.24935     10.68302        -0.191187      0.174731     -0.019881
Fe	      4.17346      4.23929      8.51753        -0.014882     -0.014385     -0.053020
O	      2.08792      2.11984      2.26719        -0.033649      0.067198      0.012528
O	      4.25957      4.21176      2.30929        -0.162422      0.000885      0.062853
O	      4.14121      2.17331      4.21538        -0.014170      0.019245     -0.047624
O	      6.19809      4.32489      4.19144         0.008364     -0.033471      0.133720
O	      6.38436      2.05495      6.62472         0.031089      0.040178      0.146613
O	      8.37147      4.12316      6.26747         0.013859     -0.107637      0.085201
O	      2.23330      4.15938      4.31962         0.229894      0.015503     -0.004973
O	      4.24426      6.22966      4.20078         0.010317     -0.103535     -0.011576
O	      4.24366      4.20865      6.32039        -0.026337      0.037699     -0.205708
O	      6.29164      6.32418      6.31520        -0.044852      0.000219     -0.002476
O	      6.32257      4.08829      8.56396         0.159550     -0.287302      0.077200
O	      8.53692      6.29155      8.58071         0.209902     -0.015739      0.131336
O	      2.10478      6.51397      6.56133         0.057068      0.066376     -0.191919
O	      4.10574      8.50193      6.55442        -0.044072     -0.002937      0.023371
O	      4.10938      6.47823      8.64497         0.134907     -0.003993      0.014509
O	      6.21427      8.54590      8.51320        -0.133844     -0.080847     -0.009172
O	      6.26591      6.35587     10.64984         0.132784      0.037131     -0.008273
O	      8.36600      8.54032     10.61415         0.019219     -0.098147     -0.100770
