# total energy = -93.17114287 eV
 
CRYSTAL
PRIMVEC
-2.089729 4.286743 -2.089406 
2.030616 4.227361 2.029619 
2.068476 0.030403 -6.187096 
PRIMCOORD
16 1
Li	      0.02389      4.32615     -4.24533         0.051313     -0.002888      0.163611
Li	      2.02722      6.46900     -4.19434        -0.017927     -0.129141      0.117424
Li	      2.01344      4.32790     -6.22976         0.004571     -0.018901      0.121365
Li	     -0.00413      2.17082     -2.10952         0.082607      0.010353      0.021053
Mn	      0.00089      0.00099     -0.00115         0.177065      1.050939     -0.693804
Mn	     -0.00925      6.46509     -2.16253         0.144891     -0.619307     -0.122128
Ni	      2.04123      4.30265     -2.10041        -0.294839      0.018176     -0.155932
Ni	      2.03459      2.16466     -4.14138        -0.201686      0.332229      0.148320
O	     -0.02781      4.40671     -6.39711         0.106580     -0.220113      0.577334
O	      1.94924      6.39542     -2.11291        -0.355168     -0.169906      0.015719
O	      2.17854      4.25301     -4.18863         0.005342     -0.125661      0.144227
O	      2.04464      4.11158      0.03718        -0.087502     -0.096535     -0.166694
O	      2.05005      2.21015     -2.00936        -0.078265      0.195693      0.199910
O	     -0.03900      6.61792     -0.14095         0.128219     -0.469685     -0.247327
O	     -0.09738      4.48868     -2.10988         0.077929      0.226007      0.131060
O	      0.07938      1.98318     -0.01814         0.256869      0.018739     -0.254138
