# total energy = -246.99594297 eV
 
CRYSTAL
PRIMVEC
-0.027657 6.196629 6.473011 
6.294943 -0.000603 6.445862 
4.219720 4.136184 -0.023445 
PRIMCOORD
36 1
Li	      6.27453      8.21760     10.61679         0.034943     -0.008959     -0.038958
Li	     10.38550      6.23998      8.59741         0.004580      0.040377      0.016056
Li	      6.32709      6.20805      4.46854        -0.020778      0.016653      0.055876
Li	      8.24857      6.26379      6.58131         0.021527     -0.010720      0.094904
Li	      8.36580      6.19962     10.59883        -0.011300      0.029020     -0.009368
Li	      6.33862      8.08973      6.55343        -0.007306      0.052510      0.000784
Li	      4.36084      6.15939      6.49302        -0.026807      0.000488      0.051300
Li	      8.27641      8.14903      8.55966        -0.046713     -0.002954      0.010317
Li	      6.38820      6.27145      8.44729        -0.039650     -0.064806      0.020610
Ti	      8.32035      8.15744     12.82434        -0.066984     -0.220143     -0.168654
Ti	      4.13560      4.18722      4.45682        -0.150881      0.233671      0.320699
Mn	      0.05103      4.03227      4.25674         0.011014     -0.009428     -0.048075
Mn	      8.38353      4.21801      8.60986        -0.142747      0.014598      0.003674
V	      4.17816      0.05109      4.23413         0.026585     -0.067148      0.076614
Cr	      6.25447      0.04818      6.43381        -0.016089     -0.010809     -0.131163
Cr	      4.24281      8.27422      8.58435        -0.009861     -0.083159     -0.032041
Cr	      6.28223      4.20182      6.47386         0.003674     -0.065903      0.019453
Co	      6.32523      4.11765      2.16391         0.096223      0.009534     -0.008243
O	      2.21371      2.17689      1.95980         0.040869     -0.025411     -0.009911
O	      4.15708      4.12525      2.05824         0.038060      0.001341     -0.000555
O	      4.21887      2.17129      4.12468         0.007678      0.061484     -0.057117
O	      6.29967      4.14703      4.37115        -0.031643      0.012723     -0.012705
O	      6.43108      2.07217      6.46894         0.172247     -0.027973     -0.009404
O	      8.39374      4.10755      6.32413         0.072504     -0.031440     -0.020105
O	      2.23821      4.11429      4.34294         0.234411      0.036155      0.000635
O	      4.22912      6.04834      4.26141        -0.001637     -0.275333      0.038171
O	      4.28362      4.10576      6.34135        -0.034135      0.008656     -0.264516
O	      6.29751      6.10973      6.45200         0.018353      0.063165      0.012302
O	      6.42146      4.12040      8.49986         0.048063      0.004960     -0.023972
O	      8.39757      6.09277      8.59797         0.014183     -0.012361      0.003758
O	      1.94972      6.29125      6.51657        -0.021935      0.199515     -0.006544
O	      4.08295      8.34436      6.52011        -0.048078      0.005367      0.060434
O	      4.15095      6.28695      8.75520        -0.060791     -0.026242     -0.115123
O	      6.23046      8.31725      8.57545        -0.080735      0.081912      0.015730
O	      6.14990      6.18456     10.94323         0.004428      0.097595      0.001295
O	      8.40102      8.28045     10.90715        -0.031270     -0.026936      0.153843
