# total energy = -243.55084843 eV
 
CRYSTAL
PRIMVEC
0.030840 6.272665 6.327644 
6.292946 0.031914 6.325780 
4.225706 4.210611 -0.008725 
PRIMCOORD
36 1
Li	     10.35319      4.21376      6.27990         0.057542     -0.009743      0.035234
Li	      8.43001      2.31574      6.22600        -0.019089      0.016190      0.012050
Li	      8.44954      4.22914      4.39016        -0.023830      0.039581     -0.066603
Li	      8.36269      4.22550      8.33814        -0.033456     -0.089065     -0.017124
Li	      2.14771      2.18124      4.25724         0.042839      0.119100     -0.031335
Li	      4.19414      4.17106      4.28974         0.024575     -0.010655      0.007460
Li	      6.42667      4.16845      6.29748        -0.019386     -0.010175     -0.025138
Li	      4.24131      8.40396      4.28275         0.021460     -0.040971     -0.020534
Li	      6.31027      8.35597      6.26494        -0.022998      0.024662     -0.017488
Ti	      6.30489      4.27452      2.22849        -0.158905      0.087284      0.306207
Ti	      2.12489      6.13167      4.36103        -0.019126     -0.461236      0.190360
Mn	      4.17125      2.22269      2.10864        -0.032128      0.053437      0.036680
Mn	      8.43349      8.41273      8.42703         0.037898      0.018736     -0.075069
V	      4.29763      6.32492      6.24156         0.002020      0.014708     -0.073123
Cr	      6.31772      2.15055      8.42198         0.028399     -0.037906      0.050811
Cr	      8.44009      6.25631      6.26551         0.023851      0.053175      0.022552
Cr	      6.34168      6.26860      8.42701        -0.083791      0.032769     -0.005228
Cu	      6.31655      2.11124      4.31604        -0.051859      0.160703      0.130803
O	      2.03316      1.99610      2.12296        -0.074400     -0.031855      0.029219
O	      4.40693      4.29440      2.06826         0.171176      0.098586      0.024417
O	      4.32254      2.15936      4.29504        -0.212931     -0.074050     -0.045215
O	      6.37124      4.19855      4.03503         0.082622      0.097596     -0.311526
O	      6.19580      2.14096      6.48129        -0.006252     -0.034493      0.063876
O	      8.41509      4.30973      6.31497        -0.003840      0.053848      0.035803
O	      2.14194      4.30404      4.19503        -0.082277      0.351493      0.042970
O	      4.10255      6.30199      4.15440        -0.066000     -0.040210     -0.029112
O	      4.23393      4.24964      6.45035        -0.020134     -0.086921      0.035534
O	      6.32045      6.27965      6.41281         0.037245      0.035597     -0.023120
O	      6.19015      4.23168      8.49616        -0.030476     -0.030049      0.012487
O	      8.39370      6.23978      8.40149         0.021188      0.057457      0.058209
O	      2.22121      6.25923      6.25781         0.002427     -0.002183     -0.167292
O	      4.21789      8.25485      6.31397        -0.002316      0.019111     -0.042335
O	      4.24714      6.35392      8.36171         0.045469     -0.122687      0.021121
O	      6.40871      8.41483      8.30705         0.149140     -0.059399     -0.119465
O	      6.44642      6.32533     10.42633         0.045920     -0.239512      0.017373
O	      8.32299      8.28180     10.40732         0.169422      0.047075     -0.063461
