# total energy = -242.88951876 eV
 
CRYSTAL
PRIMVEC
0.001856 6.338887 6.304206 
6.228045 0.002303 6.304236 
4.177481 4.251799 -0.024626 
PRIMCOORD
36 1
Li	      2.26858      6.27106      8.48491        -0.058140     -0.038273     -0.009292
Li	      4.20304      8.24806      8.45968         0.029691     -0.005889      0.013965
Li	      4.10169      6.45096     10.24560        -0.008579      0.017432      0.086804
Li	      4.15722      6.34995      2.14221        -0.024989      0.017101     -0.008010
Li	      4.22928      4.21711      4.10286         0.012994     -0.020752     -0.127118
Li	      4.12419      2.15157      6.21616        -0.012279      0.036134     -0.040076
Li	      4.17864      6.36966      6.49689        -0.013348      0.000726     -0.014018
Li	      4.12658      4.44246      8.40558        -0.024336     -0.084211     -0.004875
Li	      6.04401      6.35065      8.42149         0.096931      0.008013      0.038884
Ti	      2.12889      2.07547      0.13984        -0.007366      0.012605      0.064901
Ti	      8.40447      4.38112      8.38777         0.277558      0.358253     -0.048439
Mn	      6.14642      4.28281     10.40775        -0.058856      0.031091     -0.024941
Mn	      6.09967      4.31039      6.32916        -0.133890     -0.036956     -0.022562
V	      6.33850      8.40636      6.44361        -0.084012     -0.091317      0.125542
Cr	      6.17971      8.47089     10.41830         0.004064     -0.009816      0.053339
Cr	      2.09954      2.05246      4.15778        -0.051755     -0.008094      0.024768
Cr	      2.16279      6.34000      4.20341         0.033947      0.080745     -0.074913
Ni	      0.00493      0.02360      0.01846         0.000823     -0.021904      0.012133
O	      2.08002      2.12586      2.03559         0.003144      0.067476     -0.161118
O	      4.03331      4.25507      2.01863        -0.363671      0.030634      0.145946
O	      4.14852      2.11605      4.22529        -0.005410     -0.008083     -0.043730
O	      6.21890      4.28119      4.22192         0.028497     -0.070374     -0.024359
O	      6.36753      2.10562      6.17218         0.105382      0.081048     -0.000916
O	      8.35175      4.05903      6.40765        -0.103955     -0.093483      0.099794
O	      2.11653      4.22706      4.16539         0.067900     -0.012193     -0.035563
O	      4.20394      6.38329      4.16488         0.029664     -0.055793     -0.032577
O	      3.91881      4.23466      6.31939         0.181279     -0.013610     -0.074550
O	      6.24451      6.49480      6.14366         0.030955     -0.012332     -0.050470
O	      6.39806      4.21203      8.35224         0.082260      0.025933     -0.031464
O	      8.35089      6.24924      8.47916        -0.002707     -0.359636      0.036786
O	      2.08879      6.36816      6.24788         0.101564      0.089427     -0.072873
O	      4.16299      8.52292      6.26011        -0.062320     -0.098544      0.037158
O	      4.17550      6.30252      8.39104        -0.028542      0.037785      0.028697
O	      6.20676      8.46074      8.32427         0.033357      0.059432      0.130197
O	      6.36109      6.44461     10.54680         0.011102      0.080411     -0.069322
O	      8.23694      8.34344     10.61268        -0.086956      0.007014      0.072272
