# total energy = -245.26843825 eV
 
CRYSTAL
PRIMVEC
0.037958 6.360616 6.437443 
6.330189 0.052925 6.423647 
4.213936 4.224714 0.040478 
PRIMCOORD
36 1
Li	      4.38175     10.50977      6.60687         0.019097     -0.002009      0.051229
Li	      6.24219      4.19774      2.20782        -0.006306     -0.036010      0.051302
Li	      4.21526      2.19437      2.17519        -0.018631     -0.021980      0.001274
Li	      4.29569      6.34439     10.60159        -0.022348     -0.001836     -0.013891
Li	      6.32266      8.52097     10.59387        -0.032494     -0.000537      0.053692
Li	      0.14692      2.02708      2.14262        -0.020670      0.061185     -0.010750
Li	      2.11964      2.13464      4.08562         0.025458     -0.037658     -0.063378
Li	      6.33866      8.42336      6.65383        -0.031068     -0.009414     -0.059475
Li	      8.26436      8.53049      8.70375        -0.005801      0.011289      0.018936
Ti	      8.61457      6.19816      6.46901         0.188121     -0.204537      0.035286
Ti	      4.15323      6.34588      6.59463        -0.148958      0.042656      0.369228
Mn	      8.45767      6.46671     10.66739        -0.068771      0.024678     -0.073092
Mn	      6.31631      4.26010      6.46774         0.064594     -0.008614      0.012401
Mn	      6.31914      6.45711      8.64221         0.023434     -0.047023      0.072221
V	      4.20637      4.22516      4.24613         0.045269     -0.022410     -0.110624
Cr	      2.13104      2.15267      0.03772        -0.083745      0.032647      0.006133
Cr	      0.08152      4.23551      4.26994         0.027897      0.058384     -0.050157
Co	      2.19106      4.24159      2.15274        -0.013575      0.029228     -0.069965
O	      2.11657      2.26560      2.00237        -0.024004     -0.043874     -0.018536
O	      4.16384      4.21508      2.28829         0.049252      0.024699      0.125637
O	      4.13490      2.26934      4.52410         0.023822      0.011102      0.105592
O	      6.03107      4.26781      4.30423        -0.013978      0.015314     -0.019168
O	      6.31248      2.12587      6.38582        -0.212577      0.006431     -0.004028
O	      8.49370      4.31496      6.31703        -0.009448      0.208460      0.016185
O	      2.21135      4.27976      4.35953         0.029021     -0.053405      0.069104
O	      4.29223      6.37620      4.44769         0.032514     -0.006971      0.043986
O	      4.17013      4.34718      6.36135        -0.027822      0.043074      0.053350
O	      6.32582      6.37785      6.64424        -0.020400      0.061310     -0.082927
O	      6.50347      4.41383      8.66509        -0.077773      0.034013      0.066049
O	      8.56688      6.39352      8.40835        -0.037301      0.028147     -0.199926
O	      2.22112      6.50129      6.48418         0.179610     -0.069016      0.031526
O	      4.18229      8.37117      6.36754         0.039187     -0.101553     -0.046264
O	      4.14297      6.31678      8.43891         0.090122      0.044174     -0.369187
O	      6.29054      8.33968      8.65548         0.026556     -0.037078      0.006870
O	      6.35545      6.29596     10.59467         0.004170     -0.009431      0.018622
O	      8.61124      8.55751     10.83361         0.007547     -0.023435     -0.017258
