# total energy = -246.81253175 eV
 
CRYSTAL
PRIMVEC
0.031613 6.263689 6.355425 
6.422039 0.026772 6.360296 
4.288293 4.186159 0.010955 
PRIMCOORD
36 1
Li	      8.54020      8.41000     12.51698        -0.047665      0.011767      0.031472
Li	      8.64265     10.34853     10.70113         0.029345      0.049527     -0.047385
Li	      6.57722      8.38404     10.69326        -0.031498      0.016266     -0.015471
Li	     10.68658      6.32209      8.52559        -0.011928      0.002400     -0.022908
Li	      6.33970      6.24442      4.29453         0.007320      0.030540     -0.023064
Li	      4.32155      2.08609      6.35171         0.009340     -0.001984     -0.005297
Li	     10.56388      8.31432     10.64942         0.012592     -0.027200     -0.020755
Li	      8.65807      6.42330     10.62904        -0.015830     -0.067084     -0.015188
Li	      4.29762      6.30225      6.21202        -0.024024      0.002360      0.020140
Ti	      4.20705      2.07080      2.21507        -0.255861      0.001348      0.293134
Ti	      2.12354      4.16547      6.25391        -0.085918      0.097489     -0.270102
Mn	      6.42407      4.21715      2.16752         0.005323      0.031495     -0.016479
Mn	      8.55427      4.24586      8.51086        -0.039193     -0.015943      0.062789
Mn	      4.33851      4.28085      4.28252         0.034167     -0.091286     -0.042324
V	      8.60477      8.32116      8.58850        -0.009102      0.046284      0.057791
Cr	      6.46469      4.17510      6.34516         0.027132     -0.049702      0.001720
Cr	      6.44463      6.27978      8.56354         0.033004     -0.006233      0.140283
Fe	      6.35117      0.16156      6.16538         0.007198     -0.043554      0.179911
O	      2.35381      2.08058      2.07750         0.265153      0.038727      0.036633
O	      4.29541      4.07330      1.97649         0.029356     -0.103518     -0.045258
O	      4.33693      2.27935      4.06083        -0.012936     -0.036225     -0.288867
O	      6.31041      4.22582      4.35257         0.019018      0.040951      0.029981
O	      6.43475      2.11152      6.37831        -0.000082      0.198429      0.024510
O	      8.54541      4.22258      6.33397        -0.078332     -0.005580     -0.012166
O	      2.30421      4.11145      4.38447        -0.002707      0.022187      0.230848
O	      4.31647      6.14310      4.19787        -0.005017      0.059997      0.036548
O	      4.29327      4.20601      6.49366         0.021273      0.003242     -0.072155
O	      6.44977      6.30855      6.49548         0.002689      0.034147     -0.003630
O	      6.40180      4.25778      8.39657        -0.019681      0.028032      0.034292
O	      8.43855      6.36529      8.53383         0.008105     -0.034660     -0.014553
O	      2.08512      6.10123      6.35704         0.051544     -0.147332     -0.059917
O	      4.49352      8.37807      6.42250         0.109183     -0.037831      0.003826
O	      4.38256      6.33689      8.52106         0.097856      0.078158     -0.015682
O	      6.43192      8.30215      8.41044        -0.063607     -0.074556     -0.054287
O	      6.42773      6.28417     10.62308         0.023401     -0.036223     -0.217695
O	      8.61177      8.39812     10.49572        -0.089617     -0.014433      0.079304
