# total energy = -249.71510719 eV
 
CRYSTAL
PRIMVEC
0.015693 6.353597 6.431023 
6.212914 0.035087 6.410850 
4.141050 4.221615 0.024451 
PRIMCOORD
36 1
Li	      2.10732      0.02678      2.18006         0.005948      0.016384     -0.058680
Li	      8.26808     10.48131     10.65198        -0.018280     -0.073374     -0.008911
Li	      6.28791      8.53567     10.67356        -0.025347      0.002522     -0.008489
Li	      2.04476      4.22804      2.22517         0.039489     -0.029596      0.033153
Li	      2.09813      2.17164      4.20784         0.010824      0.006572     -0.062954
Li	      4.14861      2.16243      6.34528         0.073795     -0.004958     -0.103146
Li	     10.28446      8.45300     10.68571         0.016954     -0.040737      0.047022
Li	      8.33243      6.45508     10.66193        -0.020990      0.000256      0.053085
Li	      8.28136      8.51432      8.76389        -0.019214      0.018478      0.109090
Ti	      6.23139      4.32599      6.38761         0.080163     -0.009723     -0.277015
Ti	      6.31337      6.36819      8.78661         0.052273      0.133104      0.397073
Mn	      4.07341      2.10712      2.25629        -0.023288     -0.033133      0.007442
Mn	      4.11627      6.37266      6.39706        -0.087102      0.085654      0.017147
Mn	      4.11748      4.20861      4.26529         0.046489      0.036086     -0.098761
V	      6.18726      6.42385     12.76327        -0.095309      0.070839     -0.120125
Cr	      8.27870      8.50842     12.77130         0.095974     -0.090321      0.008999
Cr	     10.31889      6.39549      8.59800        -0.016929     -0.085454     -0.001735
Cr	      2.13701      4.20290      6.41724        -0.077829      0.089085      0.032677
O	      1.97102      2.10200      1.99913        -0.096940      0.014626      0.028509
O	      4.08582      4.33540      1.95732         0.001689      0.150524      0.121050
O	      4.16477      2.30387      4.28983         0.003660      0.093383      0.098504
O	      6.13971      4.26877      4.49077        -0.046037      0.044867      0.272147
O	      6.24961      2.22930      6.49842         0.003460      0.166213      0.056424
O	      8.24257      4.18642      6.35620        -0.261853     -0.056367      0.036336
O	      2.17863      4.19368      4.45877         0.059887      0.005556     -0.002872
O	      4.16264      6.20588      4.18290        -0.002185     -0.040446      0.023200
O	      4.20407      4.24620      6.48796         0.117961     -0.072331     -0.021817
O	      6.27861      6.30388      6.54729         0.068450     -0.110408      0.042723
O	      6.24445      4.28803      8.45769        -0.024916      0.013439     -0.102314
O	      8.22756      6.34097      8.62384        -0.125130      0.023380     -0.012760
O	      1.97016      6.30539      6.43081         0.079579     -0.017917      0.004164
O	      4.18274      8.52915      6.42214         0.021841     -0.069766     -0.019401
O	      4.31199      6.33835      8.58114         0.133446     -0.044870      0.015731
O	      6.26126      8.32370      8.46981         0.070785     -0.156508     -0.003735
O	      6.22335      6.38761     10.68227        -0.011270     -0.040152     -0.442016
O	      8.29902      8.46824     10.85994        -0.030049      0.005095     -0.059741
