# total energy = -248.54158671 eV
 
CRYSTAL
PRIMVEC
-0.040531 6.295183 6.428664 
6.436996 0.023241 6.365092 
4.306687 4.168906 0.000641 
PRIMCOORD
36 1
Li	      8.68762      8.37735     12.56282         0.034249      0.014573     -0.044168
Li	      4.34579      6.12861     10.56611         0.087440      0.011135      0.038005
Li	      6.63116      8.31987     10.59587         0.051039     -0.017241     -0.010643
Li	      4.29630      4.18099      4.37506        -0.009857      0.032977     -0.005784
Li	     10.53930      8.46703     10.80106        -0.061191      0.005697     -0.052016
Li	      6.38079      8.46113      6.57210        -0.016293     -0.053060      0.004528
Li	      4.21022      6.26240      6.48780         0.014472      0.006900      0.002556
Li	      8.48288      8.47584      8.63901         0.025444     -0.047406      0.013693
Li	      6.31751      6.35539      8.67524        -0.011336      0.023378      0.083175
Ti	      8.45330      4.21993      8.49820        -0.207409      0.365508      0.006830
Ti	      6.34684      6.28322      4.39053        -0.061433     -0.044402      0.211233
Mn	      6.43157      6.28635     12.65873        -0.033027      0.005049     -0.022694
Mn	      4.26877      6.25069      2.15722        -0.123316     -0.061722      0.015432
Mn	      4.31928      8.35017      8.53882         0.050096      0.015378      0.031820
Mn	      2.16547      6.36381      4.39633         0.033968     -0.044926     -0.054837
V	      4.26130      2.16300      6.29359        -0.025581     -0.105543      0.131202
Cr	      2.18150      6.26127      8.52506        -0.027243     -0.001821      0.100951
Cr	      6.40238      4.13937      6.30927         0.050693      0.034967     -0.007924
O	      2.20837      2.11200      2.23048         0.048493      0.019164      0.013010
O	      4.30684      4.09840      1.98308         0.045240     -0.113449     -0.021104
O	      4.06299      2.13413      4.35130        -0.084449      0.000755     -0.145119
O	      6.38363      4.31921      4.25555         0.025949      0.108319     -0.064824
O	      6.35890      2.09844      6.35585         0.015018     -0.042609     -0.013826
O	      8.47911      4.23539      6.48132        -0.054540     -0.062093      0.063288
O	      2.17360      4.11594      4.04873        -0.035666     -0.101174     -0.168512
O	      4.43226      6.27143      4.25008         0.176637      0.029521      0.020624
O	      4.40817      4.09306      6.42713         0.055183      0.140679      0.027331
O	      6.43989      6.21057      6.29631        -0.060280      0.012754     -0.251419
O	      6.58049      4.19971      8.34521         0.174201     -0.035267     -0.005283
O	      8.58472      6.12284      8.40562         0.024754     -0.312740      0.046323
O	      2.17390      6.31803      6.55493        -0.034848     -0.031557      0.056412
O	      4.27806      8.53075      6.42433         0.024691      0.016817     -0.069901
O	      4.16877      6.42108      8.56441        -0.046522      0.086944     -0.032072
O	      6.32046      8.46312      8.58060        -0.017309      0.085986      0.033240
O	      6.44476      6.29547     10.76629        -0.035192      0.006475      0.073234
O	      8.59858      8.37919     10.58650         0.007923      0.052033     -0.002762
