# total energy = -234.38950347 eV
 
CRYSTAL
PRIMVEC
0.045268 6.387522 6.136359 
6.310148 0.053297 6.128338 
4.236942 4.283383 0.005592 
PRIMCOORD
36 1
Li	      0.12395      6.43772      6.12587         0.026045      0.108966      0.017241
Li	      8.42040      8.53082     12.26304        -0.074271      0.041741      0.027656
Li	      6.25771     10.49492      8.14329        -0.092836      0.051022      0.011563
Li	      4.43366      8.63117      8.12594        -0.105125      0.012856      0.015513
Li	      6.35539      8.54379     10.17669        -0.070683     -0.001919      0.091163
Li	      4.26100      4.26424      4.11207         0.022330      0.028417     -0.016167
Li	      4.32019      2.27886      6.13513         0.020130      0.037178     -0.013745
Li	      8.28754      8.51876      8.15902         0.000093     -0.017562      0.028372
Li	      6.41651      6.60881      8.17644        -0.023817      0.002153     -0.019774
Ti	      8.54117      4.37731      8.04293         0.331012     -0.013253     -0.133533
Ti	      2.24007      2.14024      4.08522         0.378699     -0.110677     -0.063068
V	      4.33464      6.34366     10.06586         0.046981      0.098416      0.120836
Cr	      6.28888      4.25988      6.16952        -0.016970     -0.072350     -0.074566
Cr	      8.40550      6.50197     10.25873        -0.043937     -0.004890      0.044322
Cr	      4.21014      6.41756      6.18143        -0.065194     -0.038349      0.099268
Co	      6.31752      2.13661      8.11880         0.037426     -0.038617     -0.026564
Cu	     10.55170      8.61053     10.23738        -0.078515      0.011057     -0.083337
Cu	      6.36459      8.59538      6.26140         0.100415     -0.037122     -0.048434
O	      6.34972      8.56779      8.14743         0.023460     -0.045310      0.101252
O	      2.09258      2.28544      2.18955         0.037557      0.086297      0.122451
O	      4.11067      4.26321      2.01604        -0.322181      0.023040      0.016898
O	      4.10012      2.01936      4.12560        -0.335392      0.027998     -0.048668
O	      6.46086      4.43000      4.12690        -0.044993      0.056846     -0.008185
O	      6.27644      2.31173      6.14347         0.076763     -0.024288      0.034845
O	      8.36860      4.30268      6.12669         0.007440     -0.006798      0.119574
O	      2.17171      4.25408      4.09407         0.063662     -0.016119     -0.117635
O	      4.17380      6.32634      4.14506         0.042816     -0.224930      0.053250
O	      4.28918      4.38288      6.17487        -0.010785      0.014076      0.005775
O	      6.23459      6.30838      6.04328        -0.014764     -0.138466     -0.021662
O	      6.50651      4.27350      8.19497         0.030277      0.013587     -0.075001
O	      8.42832      6.31110      8.26448        -0.008355     -0.123760     -0.041217
O	      2.22410      6.50699      6.07771         0.014623      0.161892      0.017893
O	      4.34054      8.40343      6.05945         0.004425     -0.008611      0.082625
O	      4.25741      6.41691      8.29508         0.011359     -0.014702     -0.125690
O	      6.29858      6.48387     10.26627         0.072041      0.195850     -0.075006
O	      8.48574      8.62321     10.19846        -0.039737     -0.033669     -0.018244
