# total energy = -93.01350690 eV
 
CRYSTAL
PRIMVEC
-2.100074 4.307965 -2.099749 
2.040669 4.248288 2.039666 
2.078716 0.030554 -6.217725 
PRIMCOORD
16 1
Li	      0.02412      4.36909     -4.28747         0.071165     -0.010407      0.244788
Li	      2.04734      6.53321     -4.23597        -0.028993     -0.189589      0.180912
Li	     -0.04528      4.34031     -0.07387         0.013926     -0.028608      0.173418
Li	     -0.00417      2.19237     -2.13046         0.125224      0.018724      0.016010
Mn	      0.00090      0.00100     -0.00116         0.234735      1.597509     -1.074498
Mn	     -0.00934      6.52926     -2.18400         0.199079     -0.899815     -0.182477
Ni	      2.06149      4.34535     -2.12126        -0.409779      0.030100     -0.247556
Ni	      2.05478      2.18615     -4.18248        -0.284164      0.476597      0.199337
O	     -0.02809      4.45044     -6.46060         0.102725     -0.267074      0.941622
O	      1.96858      6.45891     -2.13388        -0.440105     -0.298394      0.026151
O	      2.20016      4.29522     -4.23021        -0.006531     -0.238967      0.265167
O	      2.06494      4.15238      0.03755        -0.128243     -0.137811     -0.300759
O	      2.07040      2.23208     -2.02931        -0.116900      0.342413      0.238612
O	     -0.03939      6.68361     -0.14234         0.149154     -0.754498     -0.337964
O	     -0.09834      4.53323     -2.13082         0.164416      0.307959      0.190342
O	      0.08017      2.00286     -0.01832         0.354290      0.051860     -0.333103
