# total energy = -237.12609833 eV
 
CRYSTAL
PRIMVEC
-0.001353 6.212476 6.315581 
6.273904 -0.013260 6.327825 
4.170331 4.137467 0.003211 
PRIMCOORD
36 1
Li	      4.18936      2.06934      2.13007        -0.027551      0.095466      0.256025
Li	      4.18888      0.05567      4.16512        -0.235066      0.425726      0.022918
Li	      6.23619      8.26228     10.50255        -0.346999      0.257991      0.001429
Li	      4.18596      6.17165      2.13194         0.143041     -0.090695      0.038479
Li	      2.11254      4.13165      2.15111         0.100198     -0.132019     -0.001038
Li	      8.32481      6.21196      6.31602        -0.056830      0.059991     -0.387880
Li	      0.04008      4.12258      4.21882         0.116116     -0.171133      0.012906
Li	      6.21862      8.21826      6.32663         0.050319     -0.125111      0.042069
Li	      4.23411      6.20874      6.34493         0.077243     -0.060167     -0.030187
Ti	      2.17387      8.29976      6.37310         0.134646      0.418749      0.971838
Ti	      6.20712      4.16450      6.32209        -0.445612      0.172092     -0.978589
V	      2.10357      6.17353      4.19407         0.853704     -1.190739     -0.153311
Cr	      6.23843      0.03517      6.33335        -0.221615      0.083085      0.613658
Cr	      8.34945      8.25988      8.47419        -0.113836      0.526569     -0.546190
Cr	      6.24338      6.22153      8.48287        -0.433853      0.013627     -0.385516
Co	      4.13996      4.07499      4.11808         0.219365      0.378304      0.045177
Co	      6.27410     10.31229      8.45003        -0.250650      0.110399      0.104496
Cu	      2.06564      2.14325      4.18927         0.392156     -0.178681     -0.018026
O	      2.09334      2.03882      1.90982        -0.061022     -0.348935     -0.572281
O	      4.21253      4.14953      2.02679         0.425706      0.062030     -0.813628
O	      4.06948      2.22612      4.21556        -0.192349     -1.483145      0.099024
O	      6.22770      4.24349      4.32719         0.453765     -0.122924      0.470850
O	      6.35842      2.11242      6.28550         0.194641     -0.116367     -0.007558
O	      8.34020      4.05246      6.29096         0.198186     -0.297303      0.043705
O	      2.08466      4.13995      4.20975        -0.680925      1.669281     -0.013144
O	      4.13852      6.04312      4.22539        -1.081432      1.094645      0.080617
O	      4.30881      4.10555      6.40091         0.178670      0.045964      0.611704
O	      6.28216      6.07719      6.48270         0.001591      0.005894      0.501091
O	      6.21150      4.17727      8.33992         0.050189      0.024190      0.176412
O	      8.26963      6.24951      8.47239         0.074964     -0.096670      1.172846
O	      1.98313      6.29072      6.27601         0.155374     -0.001064     -1.157017
O	      4.06954      8.37861      6.28375        -0.219450     -0.031476     -0.095290
O	      4.22099      6.13207      8.46949        -0.162692     -0.238883      0.070485
O	      6.34823      8.23268      8.43826         0.253142      0.118788      0.048086
O	      6.35995      6.20599     10.56812         0.571207      0.052545     -0.181747
O	      8.40444      8.16302     10.53833        -0.114338     -0.930026     -0.042410
