# total energy = -237.21135387 eV
 
CRYSTAL
PRIMVEC
0.027513 6.328970 6.274134 
6.319608 0.022750 6.278887 
4.223736 4.233151 0.004484 
PRIMCOORD
36 1
Li	      8.40590      8.49962     12.46831         0.012861     -0.025699      0.015440
Li	      6.47145      8.50414     10.48050         0.025134      0.007801      0.020456
Li	     10.50878      6.50984      8.49390        -0.030317      0.025573     -0.074857
Li	      8.24808      4.30347      8.43357        -0.038818     -0.014895      0.009343
Li	      4.28768      4.38109      4.14074         0.005086      0.029821     -0.000049
Li	      6.38241      4.19709      6.37114         0.017879      0.000161     -0.000998
Li	      6.27650      4.14637     10.28209        -0.034308     -0.004849      0.056745
Li	      8.55757      6.42101     10.34824         0.025401      0.008649      0.008917
Li	      6.43531      6.19375      8.45678        -0.000670      0.001838      0.042790
Ti	      6.26110      0.11880      6.15342        -0.138149      0.202327     -0.311806
Ti	      2.12191      4.19113      6.12066         0.029501     -0.100275     -0.444342
V	      4.21761      2.13872      2.23541         0.088722     -0.053026     -0.066180
Cr	      6.31443      4.25320      2.12493         0.058545     -0.052467      0.091345
Cr	      8.45600      6.35707      6.33209         0.090943     -0.059493      0.005281
Cr	      8.52745      8.43509      8.43710        -0.028787      0.039354     -0.075509
Co	      4.22029      6.34404      6.16505         0.045631      0.034455      0.210325
Co	      8.44209     10.46595     10.49239         0.005153     -0.056379      0.053969
Ni	      6.25381      6.33196      4.15990         0.036922     -0.021488      0.011446
O	      2.27559      2.03466      2.09053        -0.069167      0.058790     -0.130915
O	      4.31145      4.06820      2.05545        -0.127909      0.088738     -0.040048
O	      4.21745      2.08356      4.09792         0.175118     -0.011940      0.031574
O	      6.37647      4.27986      4.10936         0.027766     -0.086510     -0.086556
O	      6.25642      2.00143      6.28744        -0.015137     -0.263282     -0.023210
O	      8.54348      4.33046      6.35282         0.140986      0.048256     -0.046830
O	      2.11159      4.21698      4.30465        -0.010204      0.066898      0.357139
O	      4.26854      6.32438      4.24134        -0.152855      0.098279      0.373742
O	      4.10519      4.17782      6.35074        -0.104250      0.005199     -0.117670
O	      6.42415      6.46675      6.25956        -0.079904      0.136994      0.044775
O	      6.23070      4.25723      8.33254        -0.050480     -0.029331      0.018283
O	      8.43726      6.46476      8.27664        -0.025746     -0.019159      0.015291
O	      2.02148      6.23398      6.33872         0.047335     -0.054465     -0.007383
O	      4.35000      8.48750      6.46738         0.030677     -0.012460      0.012784
O	      4.15751      6.37677      8.27027        -0.028634     -0.015096     -0.271356
O	      6.30471      8.54372      8.33467         0.086341     -0.009904     -0.020885
O	      6.32119      6.32370     10.60254         0.002597      0.006028      0.353511
O	      8.46831      8.48154     10.40968        -0.017263      0.031556     -0.014566
