# total energy = -231.27487488 eV
 
CRYSTAL
PRIMVEC
-0.042258 6.307174 6.278692 
6.356069 -0.009198 6.245863 
4.236905 4.182144 -0.005456 
PRIMCOORD
36 1
Li	      0.17870      6.30585      6.12034         0.015632      0.032932     -0.046567
Li	      2.09450      8.20013      6.09739         0.000629      0.064417      0.037360
Li	      2.11445      6.26457      8.11991        -0.025573      0.035525      0.076908
Li	      6.51564      8.27513     10.34569         0.049113     -0.004735     -0.008534
Li	      8.46445      4.15452      8.27609         0.008416     -0.031241      0.032139
Li	      8.31728      6.37769     10.61026         0.037346     -0.041430     -0.082358
Li	      2.11785      4.45241      6.30260        -0.024452     -0.057059     -0.000650
Li	      3.93269      6.25977      6.35981         0.015390     -0.001982     -0.035309
Li	      8.39777      8.43280      8.43574        -0.025088      0.020130     -0.055842
Ti	     10.49224      6.20950      8.27356        -0.206906      0.002829     -0.090792
Ti	      2.08725      2.14883      4.14303        -0.039781      0.068684     -0.185586
V	      4.27102      8.35977      8.13935        -0.124058      0.132650     -0.039168
Cr	      4.20097      4.21142      4.22428        -0.093148      0.044657      0.041381
Cr	      8.46203      6.25120      6.27201         0.013586      0.024181      0.036226
Cr	      6.35743      4.18995      6.31658        -0.056101     -0.058303      0.009293
Cu	      8.51187     10.36993     10.45511        -0.134388      0.255298     -0.013829
Cu	      6.32462      6.32873      8.37322         0.140647      0.024687     -0.169279
Ni	     10.52128      8.43077     10.44186         0.093225     -0.131901      0.092593
O	      2.07211      6.32033      6.23455        -0.004109      0.031113     -0.030665
O	      2.13287      2.08421      2.25810        -0.018535      0.005000      0.189232
O	      4.22252      4.22793      2.20817        -0.043595     -0.015177      0.008357
O	      4.10560      2.15638      4.20086        -0.035239      0.050771      0.021335
O	      6.20293      4.32663      4.33190        -0.160293      0.027740     -0.065732
O	      6.28210      2.13223      6.35039        -0.026655     -0.073618      0.057849
O	      8.34100      4.28548      6.23353         0.013276     -0.091725     -0.057802
O	      2.13837      4.03890      4.25825         0.034677     -0.146129      0.024329
O	      4.32766      6.25324      4.09877         0.073963     -0.025930     -0.006336
O	      4.30999      4.10172      6.21978        -0.002881      0.018758      0.098639
O	      6.44547      6.19571      6.30551         0.029185      0.015355     -0.068286
O	      6.39539      3.97889      8.33981         0.080031     -0.187620     -0.056827
O	      8.62508      6.24318      8.26853         0.360523     -0.083477     -0.005826
O	      4.15407      8.45413      6.38757        -0.008178     -0.020347      0.040704
O	      4.16336      6.49955      8.35902        -0.131897     -0.098600      0.167009
O	      6.09724      8.41917      8.37994         0.043550      0.091324      0.015248
O	      6.37497      6.23360     10.28509         0.251586      0.264123      0.106607
O	      8.50786      8.47131     10.39642        -0.099900     -0.140900     -0.035824
