# total energy = -231.78602691 eV
 
CRYSTAL
PRIMVEC
0.030994 6.272273 6.377111 
6.280597 0.069309 6.339129 
4.226098 4.195017 0.007137 
PRIMCOORD
36 1
Li	     10.34166      4.30578      6.40974         0.105997      0.083679      0.094564
Li	      8.37590      2.34451      6.39705        -0.113190      0.022457      0.101969
Li	      2.19060      6.37624      8.45315        -0.022791      0.152199      0.029784
Li	      4.10727      2.06242      2.08745        -0.146958     -0.042405      0.071265
Li	      8.41688      4.23147      4.34708         0.016816      0.003520     -0.052673
Li	      8.42494      4.17697      8.28254         0.049773     -0.097926      0.044029
Li	      6.48900      4.16524      6.35363         0.014153     -0.120379     -0.046021
Li	     10.50013      8.46791     10.59418        -0.011160      0.037353     -0.061221
Li	      4.22647      6.30932      6.42645        -0.043334     -0.035725     -0.064961
Ti	      4.30445      4.13491      4.15733         0.645320     -0.350051     -0.396499
Ti	      8.37798      6.43400     10.71553        -0.292721      0.535743     -0.177213
V	      6.19334      8.39019      6.35236        -0.317145      0.134024     -0.064253
Cr	      0.05418      2.11420      2.11414         0.062454     -0.086247      0.268891
Cr	      4.20175      4.26155      8.42358         0.254185      0.088217      0.253126
Cr	      6.31406      6.27527      8.43496        -0.029546     -0.184341      0.345901
Cu	      6.30137      2.15728      4.30761        -0.138589      0.205882      0.148592
Cu	      2.13758      2.05702      4.20761         0.160150     -0.203118      0.055121
Cu	      8.48206      6.20099      6.34717         0.150714     -0.070348     -0.099410
O	      8.42891      4.27897      6.33381        -0.002160      0.017125      0.019395
O	      2.00794      2.11517      2.27251         0.102980      0.043804     -0.732949
O	      4.21598      4.31086      2.28852        -0.061003     -0.127344      0.138082
O	      4.30488      2.24776      4.09263        -0.386042      0.063074      0.052470
O	      6.20369      4.18966      4.28332        -0.226202      0.055843      0.069924
O	      6.24540      2.13300      6.52059         0.101373      0.030989     -0.191271
O	      2.19827      4.27842      4.35847        -0.141033      0.167311      0.842974
O	      4.08022      6.23192      4.20484        -0.198080      0.044405      0.193032
O	      4.05868      4.15720      6.34166        -0.271478      0.096616      0.101151
O	      6.38251      6.39452      6.32638        -0.195897      0.771032      0.156056
O	      6.19777      4.24920      8.50473        -0.070257      0.162674     -0.122045
O	      8.41339      6.40784      8.64542        -0.183785      0.001379      0.103295
O	      2.14331      6.22464      6.26078        -0.069361     -0.756799      0.236161
O	      4.42267      8.39169      6.35981         0.744376     -0.058351      0.000114
O	      4.33777      6.21985      8.44441        -0.009999     -0.008409     -0.220478
O	      6.41807      8.30263      8.30915        -0.128171      0.139686     -0.892601
O	      6.42839      6.38859     10.46273         0.168393     -0.519964     -0.134078
O	      8.36320      8.36317     10.52707         0.482218     -0.195607     -0.070223
