# total energy = -238.84359683 eV
 
CRYSTAL
PRIMVEC
0.001256 6.363163 6.200099 
6.275406 0.010630 6.190944 
4.191185 4.243448 -0.000626 
PRIMCOORD
36 1
Li	      4.24416      8.46493      8.29059        -0.015057      0.016610     -0.044306
Li	      4.29611      6.43401     10.26720        -0.104806     -0.014226     -0.061500
Li	      6.18448      8.38369     10.30802        -0.030827     -0.011856      0.038700
Li	      4.25376      4.21421      4.16980         0.028577      0.035648      0.036839
Li	      4.21041      2.16128      6.14281         0.009663      0.054687      0.035568
Li	      6.26451      4.21047      6.12984        -0.009323     -0.051798     -0.025545
Li	      6.27418      4.40030     10.32796        -0.034698     -0.018170     -0.012089
Li	      8.20187      6.38628     10.33242        -0.054517      0.039639      0.022733
Li	      6.21213      6.41459      8.44565        -0.043902      0.002281     -0.038050
Ti	      8.32875      8.54113     12.22435        -0.275856      0.074285     -0.128058
Ti	      8.31674      4.38513      8.32602        -0.009088      0.131970     -0.094220
V	      2.21848      2.04628      4.12836        -0.016159     -0.118200     -0.056619
Cr	      6.26398      8.48830      6.17648         0.033228      0.123135      0.069456
Cr	      4.23627      6.33750      6.17213        -0.058623     -0.094815     -0.019623
Cr	      8.38075      8.47167      8.29941         0.083690     -0.027326      0.040615
Fe	      6.24008      4.20919      2.13191         0.059659     -0.114226      0.027744
Co	      4.19279      6.38021      2.12959        -0.074014      0.063510     -0.008458
Cu	      6.20811      0.04639      6.09339        -0.095155      0.143333      0.255309
O	      2.13996      2.21440      2.06485        -0.031255      0.098057      0.075565
O	      4.06885      4.29794      1.94480        -0.358040     -0.108140      0.037999
O	      4.02099      2.14948      4.14162        -0.078368     -0.021898     -0.028739
O	      6.24324      4.37039      4.14117         0.094931      0.259181      0.029856
O	      6.44546      2.12277      6.22958         0.296547      0.075087     -0.144791
O	      8.33028      4.08094      6.32000        -0.141547     -0.147303     -0.074508
O	      2.11745      4.19893      4.06971         0.019235     -0.078784      0.027941
O	      4.39193      6.36246      4.15008         0.170093      0.008747      0.123177
O	      4.09999      4.29679      6.28697        -0.001950     -0.038562     -0.065582
O	      6.24071      6.49188      6.09923         0.086230     -0.087422     -0.069848
O	      6.32568      4.22915      8.26545         0.103559      0.117391      0.017703
O	      8.35208      6.30206      8.26285        -0.037658     -0.049206      0.026551
O	      2.21352      6.37238      6.17776         0.179951     -0.022536      0.065781
O	      4.19142      8.35452      6.21690        -0.012900     -0.046323     -0.028251
O	      4.17402      6.20104      8.18088         0.338669      0.050168     -0.000646
O	      6.37308      8.45978      8.16497        -0.020029     -0.179247     -0.030124
O	      6.24451      6.39505     10.41929        -0.004459     -0.003351     -0.149962
O	      8.37698      8.49749     10.37776         0.004198     -0.060339      0.149382
