# total energy = -240.93382921 eV
 
CRYSTAL
PRIMVEC
0.005440 6.310941 6.261184 
6.264428 0.003788 6.262933 
4.173915 4.206055 0.004845 
PRIMCOORD
36 1
Li	      6.31494      6.33215     12.41613        -0.014276      0.035019     -0.027224
Li	      8.33591      8.36551     12.44879        -0.035920     -0.008915      0.018671
Li	      6.36004      8.37047     10.57590         0.005725     -0.032078      0.049788
Li	      6.21290      6.31809      4.30491        -0.022198      0.003045      0.014494
Li	      6.18093      4.21132      6.23353         0.036144      0.035953     -0.001517
Li	      2.09703      6.41034      4.27674         0.005687      0.007634      0.015306
Li	      2.08344      4.16398      6.19681        -0.024747      0.001539     -0.040621
Li	      4.25790      6.31397      6.16432         0.045864     -0.006676     -0.032526
Li	      8.38984      8.36821      8.36666         0.032329     -0.009336      0.058499
Ti	      2.14613      6.19573      8.21252         0.115165     -0.134650     -0.425810
Ti	      8.26036      4.15740      8.31039        -0.157144      0.005655     -0.033125
V	      8.32527      4.14578      4.26705         0.088141      0.044357     -0.137343
Cr	      4.16542      8.41770      8.26850        -0.030552     -0.158590      0.107470
Cr	      4.19909      4.25629      4.21551        -0.015810      0.005606     -0.031109
Cr	      6.27932      6.34401      8.33680        -0.183926      0.059446      0.077003
Fe	      4.19254      2.20823      6.22019         0.015885     -0.349884     -0.126406
Co	      6.26095      2.11750      8.34176        -0.063501      0.058632     -0.095904
Co	      4.14134      8.38976      4.34325         0.032106      0.006298      0.049503
O	      2.12594      2.11728      2.04518         0.123417      0.136355     -0.019432
O	      4.21853      4.12137      2.15329        -0.044062      0.045475     -0.010616
O	      4.16389      2.10852      4.15348        -0.035093      0.142762     -0.054381
O	      6.27085      4.24221      4.04461        -0.062834     -0.016882      0.070368
O	      6.14415      2.11026      6.36659         0.137246      0.080224      0.033453
O	      8.35357      4.24110      6.37807        -0.031847     -0.032484      0.212557
O	      2.17114      4.21217      3.99819         0.099387     -0.097582     -0.138065
O	      4.17989      6.25222      4.08883         0.051845     -0.027519      0.055486
O	      4.17511      4.17586      6.17671        -0.003406      0.116868     -0.008739
O	      6.36723      6.30249      6.37061        -0.069163      0.027649      0.031521
O	      6.36137      4.30139      8.41488         0.164864      0.005370     -0.058229
O	      8.29267      6.21930      8.32203        -0.106446     -0.084127      0.049231
O	      2.08050      6.31966      6.42722         0.017257     -0.022577      0.411738
O	      4.20449      8.40317      6.33387        -0.011306      0.039870     -0.022099
O	      4.14587      6.37234      8.38958        -0.070550     -0.001494     -0.091502
O	      6.20201      8.45496      8.34253         0.026483      0.069009     -0.028537
O	      6.14955      6.34669     10.35530         0.131467     -0.094458      0.101031
O	      8.36631      8.50932     10.44343        -0.146233      0.150486      0.027068
