# total energy = -236.14503977 eV
 
CRYSTAL
PRIMVEC
-0.007954 6.356877 6.312041 
6.227059 0.012714 6.291596 
4.151950 4.224943 0.007786 
PRIMCOORD
36 1
Li	      6.26810      0.14692      6.28632         0.043387      0.096893      0.014707
Li	      8.20486      2.09488      6.27587         0.000514     -0.024588     -0.014090
Li	      6.11447      4.30943      2.10356        -0.054172      0.050021     -0.052746
Li	      6.24534      2.12044      4.32252        -0.031521     -0.072766      0.032140
Li	      0.08341      2.02833      2.04790         0.060208     -0.079039     -0.017970
Li	      2.08133      2.13174      4.16531         0.045430      0.009388     -0.070943
Li	      4.23514      2.06932      6.21853         0.023122     -0.084983     -0.092871
Li	      4.13315      8.47945      4.25041        -0.093328      0.036745      0.068100
Li	      2.05044      6.36872      4.27402        -0.021398      0.065503      0.014244
Ti	      4.05035      6.41832      6.11856        -0.232934      0.258976     -0.464255
Ti	      6.30266      6.37822      8.47611         0.100856      0.134845      0.259903
V	      4.09636      2.12104      2.13650         0.071173     -0.202188     -0.108940
Cr	      8.27988      4.21509      4.25073         0.076001      0.128471      0.090307
Cr	      2.11317      4.20083      2.12504         0.063482      0.041430     -0.205909
Cr	      8.29893      8.46511      8.48406        -0.012790      0.005821      0.109854
Fe	      6.22863      4.05295      6.23741        -0.074983      0.130892      0.165479
Cu	      4.18291      4.23201      4.15783         0.058265      0.073865     -0.081480
Ni	      2.08263      4.23977      6.20191        -0.050971     -0.014384      0.001202
O	      2.16428      2.22962      2.08726        -0.118413      0.131213      0.001859
O	      4.08750      4.15222      2.08306        -0.113976      0.421498     -0.124960
O	      4.17396      2.01623      4.07392         0.025082     -0.345588      0.402749
O	      6.21543      4.25777      4.27247        -0.081991      0.022538     -0.142616
O	      6.19676      2.18974      6.33251        -0.006368     -0.133308      0.013890
O	      8.21329      4.26946      6.29850         0.051272      0.016395      0.084333
O	      2.20875      4.24019      4.13209         0.040366      0.024011      0.009876
O	      4.16347      6.42464      4.30946        -0.004507      0.018258      0.474336
O	      4.17464      4.34746      6.43731         0.066093     -0.033633     -0.038822
O	      6.08370      6.35002      6.46525         0.000911     -0.131450      0.014506
O	      6.22665      4.35484      8.35543        -0.011015      0.058624      0.083731
O	      8.19931      6.38885      8.43755        -0.180193     -0.021299      0.019671
O	      2.18262      6.30110      6.32514         0.267397      0.103735     -0.053520
O	      4.19880      8.33309      6.40559        -0.094669     -0.190834     -0.239194
O	      4.17992      6.29596      8.48884         0.067465     -0.144062     -0.076149
O	      6.25281      8.35531      8.34509         0.110770     -0.193736      0.077755
O	      6.13360      6.35023     10.37418         0.061302     -0.054162     -0.190410
O	      8.29252      8.57645     10.41777        -0.049866     -0.103104      0.036233
