# total energy = -234.68919540 eV
 
CRYSTAL
PRIMVEC
-0.014410 6.338493 6.168120 
6.396400 -0.019576 6.173497 
4.264861 4.229639 -0.013754 
PRIMCOORD
36 1
Li	      4.25556      2.14188      2.29178        -0.016595     -0.036621      0.010947
Li	      4.19651      0.21109      4.09869        -0.166248      0.127195     -0.030617
Li	      6.13875      2.19864      4.10648        -0.138699      0.200770     -0.022628
Li	      4.21443      6.27035      2.08577         0.001411      0.047607      0.032774
Li	      2.34036      2.03976      4.12109         0.080246     -0.049665      0.015100
Li	      4.35324      4.01412      4.07944         0.099615     -0.065227      0.127583
Li	      4.22102      2.11883      6.03051        -0.087719      0.054067      0.087768
Li	      6.37971      4.22882      5.99492        -0.064726      0.042206     -0.039397
Li	      8.53559      6.29942     10.20011         0.106131     -0.062456     -0.105924
Ti	      8.41051      2.19690      6.13915        -0.334425      0.239009      0.348287
Ti	      6.44644      4.14000     10.13571         0.418283     -0.551316     -0.631747
V	      0.00958      6.35040      6.15842        -0.603832      0.246353      0.037313
Cr	      6.40094      4.27127      2.17452         0.351362      0.073577      0.050930
Cr	      2.13325      4.22802      6.15864         0.163889     -0.341295      0.020860
Cr	      8.47531      8.38146      8.26455        -0.033158     -0.091551     -0.156822
Fe	      4.32323      6.27612      6.13402         0.221914     -0.095110      0.061782
Cu	      2.22256      4.27821      2.11349        -0.049343      0.087725      0.145440
Cu	      6.39029      6.33866      8.29006         0.008300      0.039429      0.027619
O	      2.18310      2.05651      1.88050         0.034607     -0.190796     -0.275156
O	      4.40775      4.24308      1.92726         0.087793     -0.029730     -0.783517
O	      4.25374      2.10585      4.14948         0.050494      0.016197     -0.004604
O	      6.38838      4.25092      4.05009        -0.000180     -0.017257      0.152233
O	      6.55508      2.00664      6.10746         0.440734     -0.187477     -0.003107
O	      8.58430      4.08474      6.25914         0.743824     -0.210348     -0.471670
O	      1.99482      4.22799      4.13055        -0.285954      0.068773      0.324262
O	      4.24311      6.47906      4.20516        -0.089931      0.206077     -0.026047
O	      4.13374      4.29145      6.25010        -0.076474      0.068235     -0.026494
O	      6.27489      6.47560      6.29195        -0.088499      0.107629     -0.210701
O	      6.22329      4.05434      8.27137        -0.209478     -0.099604      0.277427
O	      8.38316      6.37211      8.20691         0.048186      0.221224      0.030946
O	      2.15930      6.35816      6.20580        -0.528728      0.021350     -0.158621
O	      4.28532      8.49082      6.09367         0.011691      0.019671      0.021835
O	      4.23346      6.21476      8.17617        -0.177879      0.026524      0.010374
O	      6.47238      8.61302      8.14189        -0.042967     -0.002563      0.059266
O	      6.39180      6.14290     10.32453         0.029580      0.103482      0.970924
O	      8.65992      8.40067     10.33657         0.096775      0.013917      0.133381
