# total energy = -236.98467805 eV
 
CRYSTAL
PRIMVEC
-0.007217 6.285958 6.332357 
6.291655 0.003954 6.321171 
4.174782 4.163500 0.022233 
PRIMCOORD
36 1
Li	      4.21194      2.06198      2.19598         0.048908     -0.018749      0.051843
Li	      4.15037      0.11706      4.16306        -0.027871      0.027047     -0.017192
Li	      4.15228      6.22799      2.14496        -0.023376      0.042044      0.014120
Li	      6.34536      6.20620      4.33526         0.036524     -0.023622      0.098539
Li	      4.19707      4.14516      4.31530        -0.002504      0.009655      0.086765
Li	      6.16855      4.31096      6.32750         0.056845     -0.035947      0.007025
Li	      6.31495      8.24516      6.40062         0.018701     -0.012595     -0.016008
Li	      4.35961      6.15284      6.36854        -0.002001     -0.016697     -0.044156
Li	      6.20507      6.29443      8.30246        -0.071201      0.005055     -0.017179
Ti	      2.14892      0.03958      2.19318         0.321167     -0.290813      0.273637
Ti	      0.07400      4.08387      4.14436         0.372067     -0.336797     -0.294113
V	      8.36936      2.12331      6.35178         0.027937     -0.017619      0.322312
Cr	      4.17185      4.15587      0.04432        -0.131841     -0.001857     -0.037243
Cr	      6.23202      2.09403      4.20051        -0.219915      0.141525     -0.098429
Cr	      8.38634      6.26335     10.51246         0.136790     -0.151884      0.132928
Fe	      8.21427      6.35458      6.34238         0.025618     -0.302795      0.005854
Ni	      2.13995      4.15965      2.13681        -0.077536     -0.064595     -0.094230
Ni	      4.18389      4.21759      8.34461         0.021170      0.040892      0.095808
O	      2.08671      2.02344      2.07008        -0.064476     -0.074404     -0.460301
O	      4.25791      4.15651      2.02594         0.148350      0.012985      0.031480
O	      4.28504      2.06311      4.32801         0.074248      0.062993     -0.122340
O	      6.26653      4.10662      4.11408         0.021786     -0.017604     -0.452097
O	      6.32623      2.02161      6.23534        -0.055278      0.003003     -0.026616
O	      8.44210      4.13611      6.41168         0.188326      0.554126     -0.098086
O	      1.99341      4.25054      4.19411        -0.312746      0.030839      0.111249
O	      4.09995      6.37717      4.26277        -0.036967      0.418356     -0.091552
O	      4.20039      4.10919      6.36390        -0.020329      0.128564     -0.141564
O	      6.33311      6.25451      6.33091        -0.028090      0.029490      0.014445
O	      6.26633      4.22261      8.58937        -0.014049     -0.070599      0.472495
O	      8.38869      6.23697      8.49314         0.035542      0.243036      0.104278
O	      2.00686      6.36143      6.29881        -0.068645     -0.500187      0.070946
O	      4.07815      8.45102      6.19137         0.017031      0.029437     -0.148356
O	      4.03556      6.28701      8.40982        -0.410662      0.004404     -0.000148
O	      6.26354      8.46955      8.52295         0.011346      0.143557      0.121428
O	      6.35535      6.29748     10.61601         0.040392     -0.026511      0.013722
O	      8.37170      8.30283     10.57421        -0.035261      0.036265      0.130735
