# total energy = -92.78973039 eV
 
CRYSTAL
PRIMVEC
-2.110420 4.329186 -2.110093 
2.050722 4.269216 2.049714 
2.088956 0.030704 -6.248354 
PRIMCOORD
16 1
Li	      0.02436      4.41224     -4.32981         0.087672     -0.021308      0.325041
Li	      2.06756      6.59773     -4.27781        -0.039671     -0.244894      0.237501
Li	     -0.03544      4.38333     -0.10538         0.026079     -0.040351      0.223854
Li	     -0.00421      2.21401     -2.15151         0.164723      0.023125      0.013148
Mn	      0.00090      0.00101     -0.00117         0.279637      2.161604     -1.486311
Mn	     -0.00943      6.59374     -2.20557         0.249592     -1.164269     -0.247210
Ni	      2.08185      4.38827     -2.14220        -0.515571      0.044501     -0.337630
Ni	      2.07508      2.20774     -4.22379        -0.367324      0.611008      0.244787
O	     -0.02837      4.49440     -6.52441         0.096422     -0.313925      1.340581
O	      1.98803      6.52269     -2.15496        -0.508631     -0.412883      0.035970
O	      2.22190      4.33765     -4.27199        -0.006652     -0.346400      0.377561
O	      2.08533      4.19340      0.03792        -0.170424     -0.171994     -0.427913
O	      2.09085      2.25413     -2.04935        -0.150449      0.478771      0.272577
O	     -0.03978      6.74962     -0.14375         0.167243     -1.079301     -0.413179
O	     -0.09932      4.57801     -2.15186         0.245109      0.371789      0.251281
O	      0.08096      2.02264     -0.01850         0.442244      0.104527     -0.410058
