# total energy = -242.75307818 eV
 
CRYSTAL
PRIMVEC
0.016394 6.299747 6.398748 
6.336864 0.015763 6.399576 
4.227338 4.202952 0.007801 
PRIMCOORD
36 1
Li	      4.17012      4.21533      0.20717        -0.036630      0.038681      0.039213
Li	      6.17413      4.27830      2.17277         0.027624      0.010559      0.026169
Li	      4.25008      6.19605      2.23332        -0.049002     -0.022978     -0.027741
Li	      2.17585      4.21959      2.11791        -0.021376     -0.015732     -0.006080
Li	      6.19467      6.30683      4.16205        -0.040294      0.009258     -0.074773
Li	      4.21416      4.32897      4.11396        -0.060528     -0.012447      0.018961
Li	      8.46193      6.25410      6.51680         0.036903     -0.023910      0.052258
Li	      6.39544      4.23272      6.48643         0.062512     -0.004972      0.055108
Li	      0.09784      4.07905      4.13062         0.035640     -0.037990     -0.167708
Ti	      6.24845      2.20511      4.42847        -0.112519      0.213156      0.513891
Ti	      2.17045      4.18493      6.29356         0.277942     -0.118190     -0.371221
V	      2.12355      2.10096      0.09145        -0.065364      0.042437      0.061899
Cr	      2.14866      6.27635      4.24080         0.031059     -0.074089     -0.075144
Cr	      4.22833      2.19759      2.15225        -0.154561      0.035491      0.020130
Cr	      6.39283      6.29488      8.51327         0.099918     -0.181919     -0.024863
Fe	      8.44917      4.19927      4.29445         0.029387      0.056630      0.062869
Fe	      4.34976      4.19452      8.51593        -0.038069     -0.033726     -0.064552
Co	      4.25999      6.27962      6.31300         0.051642     -0.032172     -0.071731
O	      2.22474      2.09443      2.01725         0.025231     -0.027830      0.054779
O	      4.23044      4.12949      2.16903        -0.036210     -0.070742     -0.010277
O	      4.33983      2.03467      4.21686         0.195317      0.038436     -0.031334
O	      6.44785      4.07688      4.23143        -0.061498     -0.233929      0.031877
O	      6.34224      2.10361      6.27423         0.017644      0.041864     -0.497652
O	      8.48606      4.08719      6.22500         0.028895      0.043246      0.059278
O	      2.06695      4.26416      4.42124         0.050255      0.016546      0.378678
O	      4.12616      6.32384      4.28834        -0.013017     -0.026338      0.032753
O	      4.06078      4.22670      6.41723        -0.325930      0.030678     -0.097579
O	      6.36483      6.44709      6.46626        -0.022291      0.143225      0.044832
O	      6.31673      4.32823      8.50573         0.186953      0.095274      0.030459
O	      8.38410      6.28699      8.63634        -0.034353     -0.039532      0.054973
O	      2.10091      6.29327      6.30270         0.015681     -0.089975     -0.037485
O	      4.30598      8.39064      6.53630         0.053302      0.005496      0.040071
O	      4.35230      6.38774      8.61030        -0.000508      0.096596      0.011626
O	      6.35270      8.38444      8.53666        -0.123101     -0.012696     -0.029394
O	      6.36889      6.42635     10.54922         0.006007      0.075520     -0.046604
O	      8.35510      8.36035     10.73867        -0.036659      0.066073      0.044315
