# total energy = -238.88741914 eV
 
CRYSTAL
PRIMVEC
0.004940 6.369578 6.218891 
6.334292 -0.022708 6.246985 
4.215056 4.257103 -0.007479 
PRIMCOORD
36 1
Li	      8.39102      2.19435      6.19821        -0.041981      0.027096     -0.020003
Li	      8.28897      4.33002      4.26147         0.028850      0.074075     -0.027242
Li	      6.23549      2.27460      4.19175        -0.088828      0.025853      0.015975
Li	      6.44784      6.23500      4.27774        -0.010051     -0.029618     -0.031390
Li	      4.35703      4.09989      4.30616         0.086532     -0.080157      0.070506
Li	      8.29569      6.34097      6.08281        -0.052497     -0.003615     -0.055361
Li	      6.34522      4.37252      6.02810        -0.081431      0.054297     -0.012034
Li	      6.44460      8.35503      6.22067         0.045099     -0.071780     -0.012690
Li	      6.32183      6.41183      8.17364        -0.056939      0.091255      0.006540
Ti	      6.39201      2.14000      8.22107         0.035513      0.128413     -0.255745
Ti	      4.20840      8.54251      4.20412         0.054931      0.080429     -0.062636
V	      4.23709      2.11137      2.19973         0.082387     -0.024247      0.223825
Cr	     10.51446      4.24027      6.25356        -0.099983      0.124520     -0.019732
Cr	      6.36055      4.22509      2.15286         0.041898     -0.117227     -0.016271
Cr	      4.32373      6.30458      6.22730        -0.044016     -0.087974     -0.029572
Fe	      2.11113      6.36165      4.19098         0.002400      0.005629      0.000902
Fe	      8.35035      8.45810      8.23452         0.087700     -0.008417      0.071127
Cu	      8.40021      4.26203      8.25157        -0.103695     -0.002536      0.000708
O	      2.07390      2.05248      2.07267        -0.039495     -0.245050      0.012387
O	      4.32614      4.32104      2.02649         0.266573     -0.040330     -0.029717
O	      4.20259      2.12262      4.05842         0.016477     -0.006126      0.149141
O	      6.35150      4.22215      4.07017         0.003138      0.017445     -0.003484
O	      6.34210      1.99813      6.37250         0.037553     -0.033386      0.243814
O	      8.56486      4.22121      6.33012         0.112307      0.028757     -0.133777
O	      1.94859      4.34278      4.02201        -0.145768     -0.011957      0.139479
O	      4.17936      6.47512      4.16252         0.026768      0.081027      0.001237
O	      4.21277      4.35725      6.26856         0.031805      0.042783     -0.225866
O	      6.24040      6.37508      6.24756         0.001268     -0.017758     -0.039215
O	      6.31213      4.05692      8.43272        -0.065442     -0.219663      0.059706
O	      8.62072      6.32179      8.42004         0.061785      0.089021     -0.028150
O	      2.09325      6.38301      6.18350         0.013473     -0.006557      0.063384
O	      4.20498      8.52067      6.16842        -0.010086      0.043283     -0.099853
O	      4.15912      6.40668      8.22069        -0.029929      0.215814     -0.053079
O	      6.22344      8.58590      8.29325        -0.270908      0.068766      0.004120
O	      6.38786      6.22735     10.46056        -0.021096     -0.163553      0.002524
O	      8.58004      8.38995     10.32884         0.125688     -0.028514      0.090443
