# total energy = -239.22675235 eV
 
CRYSTAL
PRIMVEC
0.075772 6.344908 6.141081 
6.437884 0.060763 6.156261 
4.319121 4.267282 0.013209 
PRIMCOORD
36 1
Li	      2.17845      2.18756      0.13008        -0.023225      0.006868     -0.066380
Li	      4.27309      8.47568      8.07485        -0.084479     -0.020207      0.025370
Li	      8.51340      4.16093      8.11943        -0.072956     -0.124530      0.004081
Li	      6.46555      6.41134      4.21308         0.017172     -0.024053     -0.036346
Li	      8.42526      6.35451      6.25025         0.033092     -0.003720      0.015250
Li	      6.56251      4.51234      6.26419         0.024987     -0.035837     -0.016679
Li	      6.40403      8.26982      6.25783         0.005772      0.038036      0.035389
Li	      4.64003      6.49961      6.20140        -0.024927      0.036141      0.015478
Li	      6.51679      6.37879      7.98227         0.035495      0.002893      0.094796
Ti	      4.32750      4.19511      4.25565         0.013246     -0.133510      0.498826
Ti	      2.25560      6.28906      4.13908         0.126406     -0.132183      0.011773
V	      4.27608      0.12779      4.12980        -0.032814      0.021924     -0.042574
Cr	      6.45859      2.18635      4.12131         0.004052      0.010320      0.012542
Cr	      2.23369      6.41809      8.11165         0.088889     -0.010232      0.036849
Cr	      4.35779      4.28098      8.11703         0.014700      0.089518     -0.036696
Fe	      4.23053      4.25143      0.10336         0.002271     -0.045390     -0.055585
Fe	      0.10804      4.21183      4.11475         0.005120     -0.047633      0.001269
Ni	      6.51559      2.20359      8.13561        -0.028886      0.062965     -0.059859
O	      2.11833      2.04300      2.09437         0.060166     -0.028029     -0.017761
O	      4.43423      4.29563      2.10140         0.012058     -0.097617      0.122060
O	      4.42781      2.17850      4.05585         0.058781      0.167875     -0.029739
O	      6.40277      4.21119      4.04475        -0.054668     -0.040764     -0.040868
O	      6.44013      2.04260      6.10441         0.020871      0.029697     -0.113912
O	      8.67868      4.29881      6.07896        -0.013444     -0.015094      0.034619
O	      2.35611      4.36979      4.04319         0.105231      0.206238      0.013027
O	      4.20961      6.23357      4.13897        -0.204036     -0.085455      0.052500
O	      4.36712      4.23225      6.08172         0.007645     -0.005706     -0.482724
O	      6.51297      6.39719      6.11156         0.010148      0.054388      0.011416
O	      6.38528      4.24921      8.28031        -0.034743      0.075172     -0.069741
O	      8.67537      6.55026      8.35328        -0.030805     -0.006149      0.209641
O	      2.12978      6.40033      6.05969        -0.010934      0.005543     -0.177858
O	      4.39480      8.61507      6.08405        -0.034504      0.009441      0.105768
O	      4.25661      6.32483      8.25118        -0.073741     -0.006009     -0.018878
O	      6.66157      8.63372      8.24070         0.030384      0.070695      0.023341
O	      6.54121      6.49888     10.25812         0.066269      0.044971     -0.010000
O	      8.58187      8.58422     10.18189        -0.018593     -0.070568     -0.048393
