# total energy = -243.56124845 eV
 
CRYSTAL
PRIMVEC
0.007123 6.297568 6.270924 
6.255836 0.000433 6.277727 
4.189636 4.221858 -0.018834 
PRIMCOORD
36 1
Li	      4.16711     10.39292      6.22539         0.018726      0.000553      0.003221
Li	      2.27325      8.43640      6.17584         0.037667      0.011369      0.017631
Li	      4.13273      2.13771      2.02222        -0.017422      0.014709      0.017803
Li	      8.43287     10.43613     10.46725         0.031563     -0.010926      0.021533
Li	      6.33950      8.34994     10.45149        -0.017310     -0.053042      0.070367
Li	      2.14427      4.18838      2.07964         0.010587      0.001642     -0.055853
Li	      4.17505      4.22307      4.11876        -0.008161     -0.032426     -0.035612
Li	      4.11900      8.46614      4.29573        -0.033059      0.001386      0.033058
Li	      4.11564      6.45279      6.23169        -0.000085      0.050100     -0.000979
Ti	      6.31025     10.50536      8.36410        -0.045628      0.259138     -0.000040
Ti	      4.21789      2.02893      6.10250         0.103909     -0.084654     -0.827993
V	      6.15494      8.44203      6.24075         0.329623     -0.208168      0.005130
Cr	      6.24917      4.21233      6.20254        -0.019969     -0.061458     -0.024096
Cr	      2.08298      6.30813      4.22783        -0.013825      0.195344     -0.085597
Cr	      6.21850      6.30487      8.42306        -0.054504     -0.095299      0.225203
Fe	      4.22427      6.30870      2.13271         0.025619      0.021055     -0.134438
Fe	      2.03696      2.19429      4.13416         0.136964     -0.080642     -0.012713
Fe	      8.36264      8.46530      8.47499         0.029409     -0.038165      0.013807
O	      2.05755      1.98487      2.04194        -0.141509     -0.202237     -0.165283
O	      4.35882      4.29564      2.05100         0.115291      0.106046      0.010476
O	      4.16664      2.13693      4.28335         0.217398     -0.039800      0.738952
O	      6.26926      4.27581      4.11158        -0.031333     -0.122461     -0.118187
O	      6.12952      2.20354      6.34637        -0.160807      0.002378      0.084681
O	      8.26549      4.34349      6.24232        -0.041463      0.192293      0.006613
O	      2.13276      4.22256      4.26477         0.009395      0.316808      0.114989
O	      4.12741      6.33368      4.08360        -0.236212     -0.059709     -0.096510
O	      4.17469      4.05563      6.35451         0.111868     -0.041403     -0.061092
O	      6.32392      6.27655      6.33764         0.034653     -0.174034      0.183636
O	      6.29177      4.24606      8.20705         0.074599     -0.065382     -0.004967
O	      8.31152      6.26685      8.42287         0.096769     -0.075487     -0.096593
O	      2.12806      6.23734      6.30311         0.008269      0.247121      0.175992
O	      4.29483      8.41523      6.26536        -0.426246      0.035526      0.034544
O	      4.15484      6.33794      8.38085        -0.093172      0.047592     -0.013343
O	      6.23355      8.41838      8.30892        -0.021535      0.052796     -0.090954
O	      6.34047      6.29876     10.36903        -0.033908     -0.045991     -0.088372
O	      8.34943      8.30327     10.45333         0.003841     -0.064572      0.154983
