# total energy = -230.82375355 eV
 
CRYSTAL
PRIMVEC
-0.009585 6.266688 6.147229 
6.253245 0.003310 6.133848 
4.174461 4.174722 -0.003446 
PRIMCOORD
36 1
Li	      6.20999      4.22523      2.21380        -0.065759      0.006654     -0.048763
Li	      4.14326      2.11359      2.21144         0.050607      0.016646     -0.097708
Li	      6.16726      2.17877      3.97087         0.029971     -0.033992     -0.040638
Li	      2.27520      2.00974      3.94771        -0.036921      0.034251      0.007402
Li	      4.25036      3.94214      4.00583        -0.000070     -0.041830     -0.032861
Li	      4.18699      2.09619      6.01308         0.000778      0.020217      0.025120
Li	     10.32597      8.36937     10.16957         0.035284      0.030189     -0.006629
Li	      8.32576      6.39639     10.14227        -0.034234      0.032030      0.014863
Li	      8.32468      8.29099      8.35371        -0.032480     -0.019350     -0.023674
Ti	      6.17580      0.04743      6.09777         0.051921      0.159594      0.121512
Ti	      2.17995      4.17931      6.07288         0.091567     -0.052173     -0.101351
V	      4.15437      6.28649      6.08741         0.158577     -0.156944     -0.048040
Cr	      2.09999      8.32342      6.13276        -0.404907      0.262930      0.106177
Cr	      6.21851      4.16352      6.07416         0.161553     -0.240159      0.188670
Cr	      6.30825      6.26565      8.25140        -0.013375      0.126943      0.091207
Ni	      4.08845      0.04696      3.98925         0.269392     -0.140090     -0.133574
Ni	      4.14160      6.28552      2.17284        -0.064570     -0.008335      0.061559
Ni	      2.07928      4.15859      2.19151         0.057494     -0.007063      0.140055
O	      2.00215      2.12898      1.98826         0.173263     -0.188628     -0.074667
O	      4.14018      4.22910      1.88185         0.099263     -0.116541     -0.158507
O	      4.18878      2.01026      4.10046         0.050385      0.211235      0.020886
O	      6.26822      4.17984      4.16436        -0.385826      0.003124     -0.020337
O	      6.32607      2.07278      6.17272        -0.020266     -0.084585     -0.091496
O	      8.36234      4.08456      6.15984        -0.026254      0.064537     -0.192334
O	      2.08688      4.14374      4.24704         0.004517     -0.001828      0.272343
O	      4.14254      6.32197      4.30425        -0.026982      0.039637     -0.039159
O	      4.15970      4.26832      6.11560         0.058320      0.131521     -0.055849
O	      6.18936      6.26238      6.20863        -0.040276     -0.049562     -0.079260
O	      6.26593      4.22271      8.12200        -0.158936      0.068162     -0.040738
O	      8.30103      6.20115      8.19960        -0.037334      0.123504      0.019128
O	      2.05709      6.22555      6.16975         0.077050      0.089632     -0.043654
O	      4.19326      8.42172      6.14653        -0.071942     -0.083724     -0.019907
O	      4.24715      6.28451      7.97942        -0.043303      0.002011      0.207387
O	      6.29473      8.24250      8.01661        -0.010985      0.014593     -0.090554
O	      6.23536      6.28016     10.30639         0.072979     -0.038491      0.128037
O	      8.34168      8.42467     10.32307         0.031501     -0.174114      0.035354
