# total energy = -240.00331539 eV
 
CRYSTAL
PRIMVEC
-0.004186 6.288082 6.309101 
6.346771 0.040547 6.264121 
4.259704 4.191150 -0.001719 
PRIMCOORD
36 1
Li	      8.49670      4.26961      4.24358        -0.008610      0.015514      0.014141
Li	      4.20637      4.21510      4.44665         0.004799      0.005299     -0.080508
Li	      8.34926      6.50825      6.36101        -0.006112     -0.023712      0.007328
Li	      6.11072      4.36200      6.35349         0.006122     -0.060326      0.038636
Li	      2.15579      6.21785      4.15614         0.018464     -0.009826      0.018414
Li	      2.33894      4.07402      6.22196        -0.009065      0.015414     -0.048713
Li	      4.39536      6.07900      6.26402        -0.023778      0.084161     -0.018421
Li	      4.29335      4.11842      8.13917        -0.036929     -0.030081      0.080454
Li	      6.42329      6.26240      8.15248        -0.005381     -0.003867     -0.026926
Ti	      2.27151      6.21421      8.29970         0.312680      0.093607     -0.048206
Ti	      6.47378      8.43720     10.56235         0.473661      0.047705      0.023458
V	      4.25930      2.12881      2.09940        -0.080474     -0.047367     -0.052975
Cr	     10.56494      4.23741      6.26429         0.293586      0.106782     -0.002293
Cr	     10.52120      6.35013      8.38786         0.357208      0.026006     -0.066091
Cr	      6.39138      6.30765      4.29059        -0.021433     -0.217199     -0.154877
Cr	      6.31549      4.24970     10.45582        -0.225820     -0.003132      0.032278
Co	      8.47096      2.18054      6.25249        -0.001184      0.183224      0.172736
Cu	      8.35948      4.35309      8.33751        -0.121941     -0.119263     -0.004063
O	      2.10882      1.98591      2.17937        -0.030835     -0.172879      0.107169
O	      4.43170      4.20382      2.01900         0.139844     -0.000167     -0.050219
O	      4.25261      2.13267      4.04459        -0.004805      0.013527      0.161750
O	      6.40018      4.11458      4.07827         0.026896     -0.014217     -0.003375
O	      6.33691      2.08190      6.23464         0.191053      0.040090      0.097459
O	      8.59497      4.17764      6.39096        -0.171134     -0.674541     -0.152374
O	      1.95951      4.10946      4.09942         0.070721      0.103906      0.066739
O	      4.34094      6.39019      4.10946         0.005421     -0.026930      0.065822
O	      4.20730      4.22557      6.28487        -0.047451     -0.006054     -0.004076
O	      6.37372      6.29776      6.18563         0.009826      0.014136      0.041612
O	      6.24083      4.12849      8.49008        -0.107342     -0.015668     -0.011927
O	      8.61308      6.26650      8.41093        -0.216333      0.217595     -0.029889
O	      2.00715      6.33924      6.42234         0.064043      0.404994     -0.090932
O	      4.22382      8.49792      6.30050        -0.399832     -0.034213     -0.023222
O	      4.13259      6.43586      8.35010        -0.279109     -0.048237     -0.023180
O	      6.33738      8.47844      8.54597         0.042212      0.118964      0.018849
O	      6.32232      6.39239     10.56582        -0.034110     -0.010639      0.070989
O	      8.38712      8.42093     10.50493        -0.184861      0.027396     -0.125567
