# total energy = -238.70777000 eV
 
CRYSTAL
PRIMVEC
0.008056 6.261940 6.315508 
6.291240 -0.014403 6.338085 
4.177125 4.172541 0.007456 
PRIMCOORD
36 1
Li	      6.32730      0.11403      6.30462        -0.028271      0.029907     -0.041263
Li	      8.25840      2.03620      6.30618        -0.042718      0.029791     -0.011701
Li	      4.25553      8.29423      8.40034        -0.004789      0.012897     -0.048614
Li	      8.28865      4.22299      4.27933        -0.053932      0.044136      0.031245
Li	      6.29578      2.10311      4.32593         0.002209      0.031044      0.047341
Li	      6.32057      6.18716      4.36265        -0.019532     -0.035651      0.123552
Li	      4.21377      2.07676      6.27970        -0.004859      0.002576     -0.023243
Li	      6.27927      4.14540      6.24840        -0.007087      0.003512     -0.048079
Li	      6.30818      8.30334      6.38805         0.024469     -0.014780     -0.014404
Ti	      8.42916      4.02596      8.26025        -0.038333     -0.055311     -0.747885
Ti	      4.12251      8.38482      4.39247        -0.221382      0.131622      0.590348
V	      4.24491      3.97509      4.29821         0.046094     -0.029471      0.109931
Cr	      2.15770      6.20379      8.39235        -0.115557      0.093876     -0.002839
Cr	      6.25467      2.11897      8.34154         0.065042     -0.074955     -0.091045
Cr	      2.09098      6.23563      4.30100         0.030405     -0.056840      0.030447
Cr	      6.24613      6.32353      8.37134         0.043491     -0.014584      0.038696
Cu	      4.09547      4.20484      8.32406        -0.086150     -0.008691     -0.049704
Ni	      4.23367      6.26614      6.35552         0.041057      0.084697     -0.095849
O	      2.00546      2.10321      2.10490         0.021022      0.162125     -0.075835
O	      4.16949      4.25854      2.19272        -0.077773     -0.035227     -0.046797
O	      4.13465      2.23223      4.20918         0.024748     -0.141635     -0.043198
O	      6.17131      4.16550      4.08466         0.000195     -0.013958      0.061061
O	      6.25451      2.08950      6.44287        -0.018745      0.080687      0.022778
O	      8.42070      4.15863      6.46655        -0.032779     -0.062402      0.680735
O	      2.10110      4.20784      4.16782        -0.087712      0.082865     -0.045018
O	      4.11371      6.29240      4.14316        -0.015804      0.070258     -0.025291
O	      4.22831      4.25200      6.13658        -0.002184     -0.108249      0.059948
O	      6.25829      6.26299      6.44904         0.165283     -0.015747      0.049190
O	      6.46343      4.16387      8.52512         0.065472      0.029405      0.037205
O	      8.37332      6.10075      8.57215        -0.005466     -0.006531      0.006180
O	      2.16243      6.25628      6.32641        -0.134606      0.023633     -0.015207
O	      4.21552      8.36073      6.20246         0.014954      0.042580     -0.556302
O	      4.18546      6.35121      8.43860         0.055840     -0.128775      0.098553
O	      6.20458      8.34815      8.46666         0.156173     -0.034129     -0.034142
O	      6.36029      6.13935     10.47663         0.017798     -0.133454      0.050809
O	      8.52499      8.23363     10.58028         0.223423      0.014779     -0.021603
