# total energy = -238.97327837 eV
 
CRYSTAL
PRIMVEC
0.013399 6.353786 6.268825 
6.198206 -0.007463 6.289956 
4.118959 4.237472 0.008005 
PRIMCOORD
36 1
Li	      6.13770      0.14790      6.17412         0.066164     -0.003408     -0.042028
Li	      8.12842      2.21387      6.21682         0.044920      0.038305     -0.013341
Li	      2.09535      6.35415      8.36509         0.055933      0.014263     -0.035407
Li	      6.26549      2.03542      4.37923        -0.007877     -0.042508      0.055604
Li	      2.09379      2.13412      4.21888         0.029139      0.020829      0.029197
Li	      8.37159      6.18585      6.31954        -0.033651     -0.015678      0.030218
Li	      6.29781      4.09982      6.28970        -0.068897     -0.034016      0.021490
Li	      6.16361      4.34112     10.44356        -0.049981      0.038358      0.034897
Li	      8.15688      6.38025     10.47613        -0.048971     -0.029136      0.003984
Ti	      4.25460      4.12771      4.17867         0.168444     -0.078341     -0.002117
Ti	      4.07315      6.39840      6.15350        -0.168527      0.077281     -0.111118
V	      4.04331      2.16835      2.09802         0.156053      0.109611     -0.211498
Cr	      8.22471      4.17644      4.26016        -0.071868     -0.058961     -0.130246
Cr	      6.20150      2.13835      8.32384         0.042270      0.017679      0.139246
Cr	      2.08751      4.22871      6.24459        -0.088255      0.031558      0.068941
Cr	      6.21721      6.30072      8.39561         0.000381     -0.005846      0.015001
Cu	      8.22232      4.22074      8.26090        -0.054724      0.026745      0.006940
Cu	      8.22011      8.41612      8.48426        -0.056158     -0.066626     -0.103383
O	      2.09610      2.26395      2.07798        -0.274824     -0.192607      0.034709
O	      4.23138      4.30268      2.23505         0.055023      0.108100      0.269987
O	      4.14986      2.16523      4.10336         0.036259      0.124711      0.041203
O	      6.14636      4.23173      4.21376        -0.145971     -0.006495      0.033939
O	      6.19545      2.10160      6.44301         0.033157     -0.002884     -0.124258
O	      8.27029      4.25145      6.18301         0.014406     -0.004801      0.131957
O	      2.25734      4.21042      4.28152         0.095917     -0.022230     -0.073053
O	      4.17274      6.27380      4.26289        -0.022081     -0.038850      0.041122
O	      4.10285      4.35397      6.23942         0.037034      0.107962     -0.189539
O	      6.08955      6.43669      6.36172        -0.051897      0.013298      0.015505
O	      6.07334      4.19781      8.40261         0.128226      0.011891     -0.010878
O	      8.25788      6.18217      8.39397        -0.012673      0.159944      0.015172
O	      2.19863      6.25839      6.30454         0.201984     -0.041022     -0.052267
O	      4.18323      8.36587      6.32996         0.030706     -0.182606     -0.092765
O	      4.17109      6.47948      8.35268         0.016376     -0.041145      0.061587
O	      6.15265      8.34928      8.27982        -0.057417     -0.059996     -0.110635
O	      6.11290      6.34287     10.36350         0.001567      0.002919     -0.000132
O	      8.22282      8.58674     10.41094        -0.000188      0.023701      0.251965
