# total energy = -92.50077980 eV
 
CRYSTAL
PRIMVEC
-2.120765 4.350408 -2.120436 
2.060774 4.290143 2.059762 
2.099196 0.030855 -6.278984 
PRIMCOORD
16 1
Li	      0.02460      4.45560     -4.37237         0.104335     -0.029566      0.400287
Li	      2.08788      6.66258     -4.31985        -0.046613     -0.301865      0.296222
Li	     -0.02550      4.42656     -0.13720         0.037732     -0.053278      0.269933
Li	     -0.00425      2.23578     -2.17265         0.201532      0.029333      0.007928
Mn	      0.00092      0.00102     -0.00119         0.313755      2.746222     -1.930735
Mn	     -0.00953      6.65854     -2.22724         0.295208     -1.405498     -0.314825
Ni	      2.10231      4.43140     -2.16326        -0.610102      0.053897     -0.423395
Ni	      2.09547      2.22944     -4.26531        -0.448267      0.733409      0.284915
O	     -0.02865      4.53857     -6.58853         0.088134     -0.352245      1.777212
O	     -0.05321      2.29665     -4.23590        -0.562166     -0.515646      0.048954
O	      2.24373      4.38028     -4.31397        -0.008466     -0.449141      0.485151
O	      2.10583      4.23461      0.03830        -0.208425     -0.204333     -0.549586
O	      2.11140      2.27628     -2.06949        -0.181532      0.611698      0.306735
O	     -0.04017      6.81596     -0.14516         0.179269     -1.451242     -0.474307
O	     -0.10029      4.62300     -2.17301         0.323069      0.424534      0.305339
O	      0.08176      2.04252     -0.01868         0.522536      0.163721     -0.489828
