# total energy = -244.94837372 eV
 
CRYSTAL
PRIMVEC
0.023451 6.145750 6.359941 
6.292983 0.016066 6.367082 
4.212168 4.119034 -0.006102 
PRIMCOORD
36 1
Li	      4.13712      4.09970      0.12053        -0.058065     -0.028986      0.091356
Li	      2.13457      2.11368      0.13823         0.041016      0.055876     -0.018347
Li	      4.07391      2.13550      2.05516         0.031257     -0.018469     -0.072178
Li	      6.27997      2.07471      4.26386        -0.014365     -0.016966      0.031100
Li	      0.17955      2.05540      2.04512        -0.037587     -0.026303      0.004973
Li	      2.11925      3.91615      2.17054        -0.029884      0.047461      0.001679
Li	      2.13716      2.09091      4.04326         0.020892      0.008968      0.027976
Li	      0.04540      4.07312      4.22299         0.026913     -0.012724      0.016914
Li	      8.44879      8.23122      8.54456         0.045398      0.006200     -0.032399
Ti	      8.40227      6.28319     10.59316         0.112753      0.145203     -0.005209
Ti	      6.33112      6.18609      8.49316        -0.003459     -0.007193      0.058786
V	      8.48189      6.13745      6.40040        -0.159427      0.032801      0.060711
Cr	      2.06388      0.03913      2.11026         0.062242     -0.058061     -0.028184
Cr	      8.42893     10.24735     10.59784        -0.011079      0.019587      0.042273
Cr	      4.20883      4.06829      4.16451         0.056336      0.012482      0.098828
Cr	      4.21118      6.20390      6.35256         0.021167     -0.044486      0.014564
Fe	      6.21141      8.26759      6.34191         0.103207     -0.042924     -0.051232
Co	      6.32227      4.01720      6.39859        -0.077238     -0.105762      0.007761
O	      2.10740      1.96824      2.12676         0.003046      0.023194     -0.040726
O	      4.32386      4.09791      2.21840        -0.065871      0.028361     -0.079845
O	      4.19514      2.02949      4.35815         0.020723     -0.028492     -0.056889
O	      6.35677      4.10117      4.14349        -0.056376      0.002973      0.167476
O	      6.16129      2.04805      6.42632         0.325386      0.172123     -0.083117
O	      8.39716      4.18094      6.20441         0.157266     -0.093872      0.072672
O	      2.22610      4.25316      4.20084        -0.075692      0.004545     -0.094103
O	      4.10032      6.10395      4.34518        -0.073926      0.047740     -0.060983
O	      4.15624      4.09972      6.24326        -0.134232      0.071694     -0.005855
O	      6.28154      6.12190      6.46479        -0.005712     -0.172119      0.004672
O	      6.32380      4.28475      8.45324        -0.027761      0.064059     -0.140052
O	      8.31746      6.22556      8.60114        -0.065093     -0.009797      0.084950
O	      2.20451      6.23498      6.32861        -0.029586      0.055730     -0.058942
O	      4.25646      8.13079      6.31213        -0.151984      0.060802      0.016407
O	      4.24583      6.15537      8.47487         0.023137     -0.023490      0.037665
O	      6.34128      8.16473      8.46823         0.008344     -0.063811      0.081748
O	      6.34628      6.16487     10.50086         0.013063     -0.007407     -0.083085
O	      8.42910      8.18502     10.59216         0.005192     -0.098937     -0.011364
