# total energy = -243.60333479 eV
 
CRYSTAL
PRIMVEC
-0.005479 6.394248 6.182142 
6.338911 0.014635 6.162082 
4.250721 4.274273 -0.014794 
PRIMCOORD
36 1
Li	      2.14454      8.51350      6.13559         0.026175      0.036171      0.052773
Li	      4.26184      8.40074      8.19636         0.014263     -0.015630     -0.026800
Li	      8.34172      4.32844      8.15774        -0.035676      0.024488     -0.020301
Li	      8.45161      6.46247      6.19508        -0.005421      0.027163      0.055347
Li	      6.28503      4.34736      6.26677        -0.059378      0.035170     -0.010208
Li	     10.52171      8.52829     10.21067         0.012004     -0.033842     -0.034230
Li	      4.23950      6.33608      6.24950         0.033265     -0.032723     -0.016968
Li	      4.25901      4.35113      8.16911         0.045663     -0.012393     -0.003808
Li	      6.30194      6.27696      8.16145        -0.063047     -0.095603     -0.002739
Ti	      4.16017      4.17763      0.02845        -0.293685     -0.143604      0.020265
Ti	      2.12493      2.25430      4.16228        -0.280764      0.222950      0.160845
V	      6.23482      2.28424      8.16715         0.108090      0.044021      0.005073
Cr	      6.36453      8.54831     10.29347        -0.017002      0.016652     -0.004869
Cr	      2.15895      6.41311      8.21182         0.060077      0.005229     -0.006268
Cr	      4.23260      6.37809     10.27282         0.012719     -0.019583      0.005065
Cr	      6.37901      8.52635      6.21705         0.055655     -0.115039      0.038604
Fe	      4.24256      4.26002      4.16463         0.031369      0.041284     -0.102044
Cu	      8.47210      6.52167     10.21629         0.008385      0.043416     -0.158662
O	      2.01873      2.04585      2.14334         0.091439     -0.014626      0.065143
O	      4.34254      4.38112      2.00544         0.017160     -0.071094     -0.121865
O	      4.19787      2.06127      4.08644         0.018771     -0.051844      0.026569
O	      6.43733      4.25534      4.07947         0.040022      0.016898     -0.028615
O	      6.38252      2.02273      6.15779         0.004592     -0.066085     -0.138250
O	      8.62634      4.24921      6.12338         0.296168      0.006973     -0.000181
O	      2.10723      4.13456      4.17939        -0.035841     -0.256710     -0.020991
O	      4.44781      6.41612      4.01702         0.253028      0.028766      0.167531
O	      4.11606      4.27063      6.13504        -0.037802     -0.009119      0.126603
O	      6.35038      6.47012      6.07753         0.023027      0.049043     -0.214871
O	      6.38849      4.14620      8.18902        -0.048309      0.103004      0.040961
O	      8.70856      6.34366      8.20478        -0.245163      0.004724      0.187058
O	      2.03834      6.28677      6.23006         0.004845      0.053091     -0.080252
O	      4.32608      8.68842      6.17083        -0.026182      0.217540     -0.031508
O	      4.13800      6.42059      8.29173        -0.011249      0.002091      0.021699
O	      6.33675      8.66369      8.25074        -0.023828      0.027842      0.012109
O	      6.24173      6.53153     10.35296         0.014085     -0.036168      0.039077
O	      8.33602      8.66630     10.29233         0.012544     -0.032454     -0.001296
