# total energy = -243.13957353 eV
 
CRYSTAL
PRIMVEC
-0.008012 6.396424 6.278651 
6.303635 -0.012420 6.283530 
4.184200 4.249329 0.009758 
PRIMCOORD
36 1
Li	      4.26084      4.22475      0.13473         0.070017      0.004171      0.024743
Li	      2.06282      2.11379      0.18362        -0.047399     -0.026514     -0.020559
Li	      1.91086      0.23422      2.10851        -0.023509      0.010174     -0.062830
Li	      3.98103      2.27478      2.06151        -0.058322      0.079750     -0.002362
Li	      0.18841      2.01625      2.14211        -0.036268     -0.036404      0.022579
Li	      2.05516      2.13348      3.98435        -0.000365      0.072115      0.030365
Li	      6.28995      4.20638      6.26788         0.065004      0.022704     -0.020208
Li	      0.05157      4.24536      4.15072         0.004685     -0.006842      0.027974
Li	      2.09721      6.33161      4.20278         0.031973     -0.072494      0.099100
Ti	      8.48734      6.24526      6.32720         0.203399     -0.416789     -0.096688
Ti	      4.10888      6.50592      6.18477        -0.529913      0.065926     -0.517020
V	      2.09789      4.27622      6.22454        -0.385387     -0.218718     -0.022051
Cr	      6.28636      2.13501      4.17043         0.069996      0.037971      0.003820
Cr	      8.32855      4.24565      4.17225        -0.038053     -0.006769      0.018843
Cr	      4.27539      4.24225      8.38575         0.102202      0.020364      0.134849
Cr	      6.30514      6.36368      8.40744         0.049392     -0.058680     -0.070533
Fe	      2.12768      4.16156      2.11797        -0.051354     -0.041562      0.005337
Ni	      4.22011      4.27653      4.11035         0.017526      0.013907     -0.084940
O	      2.07299      2.14267      2.08105        -0.053092     -0.126991     -0.011459
O	      4.12268      4.26294      2.11585         0.082577      0.037748     -0.072368
O	      4.23265      2.07651      4.30041         0.119044     -0.075894      0.142397
O	      6.31850      4.13199      4.17136         0.129539     -0.113335      0.014543
O	      6.16036      2.12011      6.20535        -0.431936     -0.013197     -0.076325
O	      8.33957      4.35686      6.18372         0.055745      0.421638     -0.086463
O	      2.15477      4.26196      4.30138        -0.121287      0.063505      0.153014
O	      4.20916      6.33250      4.35018        -0.017529      0.131961      0.555539
O	      4.20122      4.23079      6.32999        -0.345003     -0.020622      0.159301
O	      6.29982      6.45868      6.37539         0.042487     -0.474563      0.102658
O	      6.28730      4.37069      8.39739        -0.226931      0.035703      0.018746
O	      8.34048      6.45785      8.31318         0.009282      0.140376     -0.199169
O	      2.21520      6.29280      6.31779         0.696023      0.653310     -0.104929
O	      4.20709      8.36185      6.27568         0.588208     -0.005592      0.086198
O	      4.29969      6.26845      8.36540         0.064726     -0.059662     -0.003561
O	      6.40599      8.39873      8.38242        -0.011589     -0.111819     -0.027039
O	      6.18447      6.49388     10.39875        -0.039121      0.039140     -0.033302
O	      8.28651      8.62205     10.39152         0.015238      0.035984     -0.088198
