# total energy = -239.93279240 eV
 
CRYSTAL
PRIMVEC
0.014053 6.231028 6.345871 
6.231873 0.002254 6.357660 
4.152615 4.160000 0.003388 
PRIMCOORD
36 1
Li	      6.22523      6.30888     12.59982         0.002014     -0.001271     -0.050219
Li	      8.25716      4.09964      4.28439        -0.002510     -0.020624     -0.010747
Li	      6.34694      8.31088     10.68714         0.018023     -0.015465     -0.032951
Li	     10.31326      6.28974      8.46703        -0.016890      0.024980     -0.022042
Li	      4.24820      4.27308      4.29291        -0.042386      0.040012      0.001174
Li	      6.22577      4.10653      6.26192        -0.008594      0.005943     -0.069884
Li	      8.32161      6.28212     10.55757        -0.006609     -0.016123     -0.030906
Li	      8.33744      8.24282      8.44085         0.021563     -0.028984     -0.040965
Li	      6.28652      6.20052      8.50378         0.000756     -0.013344      0.008140
Ti	      4.21726      2.03294      2.32667         0.192612     -0.088835      0.292740
Ti	      6.16831      4.24182     10.49723        -0.171625      0.416476     -0.255522
V	      8.31738      4.24343      8.48773        -0.010146      0.019792     -0.019283
Cr	      8.24683      2.10686      6.31514        -0.077709      0.021772      0.022653
Cr	      6.18977      4.17666      2.17908         0.030028     -0.061643      0.022937
Cr	      4.22096      2.08105      6.32212         0.010169     -0.042001     -0.001361
Cr	      2.08785      4.18469      6.30340         0.058302     -0.005272      0.043678
Ni	      6.17656      6.18903      4.27545         0.074844     -0.008128     -0.040191
Ni	      4.19158      6.18425      6.32801         0.034554     -0.093081      0.069109
O	      2.15590      2.08337      2.05138         0.039124     -0.056838     -0.064213
O	      4.12572      4.00522      2.15679         0.055183     -0.105979      0.016829
O	      4.16425      2.03248      4.18614         0.080157      0.016033     -0.252365
O	      6.22331      4.19606      4.11327         0.020619     -0.162011      0.011710
O	      6.25636      2.07598      6.33887        -0.000052      0.020190      0.028543
O	      8.29089      4.14500      6.43982         0.016194      0.001542     -0.028492
O	      2.00437      4.12273      4.28063        -0.006515      0.129863      0.019384
O	      4.17175      6.33451      4.29811        -0.144902      0.086771     -0.119431
O	      4.07048      4.10028      6.35609        -0.003550     -0.085117     -0.026376
O	      6.30958      6.33943      6.32440         0.078404      0.007304      0.091769
O	      6.30965      4.13389      8.60109        -0.042616     -0.002373      0.239482
O	      8.34217      6.15454      8.31211        -0.041800      0.095335      0.017871
O	      2.10296      6.25338      6.46298        -0.108475      0.002143      0.027129
O	      4.14742      8.28331      6.36459         0.005897      0.128633      0.001183
O	      4.08264      6.34871      8.41786        -0.030444      0.182870      0.101035
O	      6.13999      8.38566      8.36619        -0.162140     -0.023691      0.014212
O	      6.26298      6.08930     10.57150        -0.015660     -0.380207     -0.000319
O	      8.39255      8.29601     10.68125         0.154182      0.011329      0.035688
