# total energy = -230.70446000 eV
 
CRYSTAL
PRIMVEC
0.006621 6.246665 6.305259 
6.242256 0.031590 6.279496 
4.170790 4.156780 0.012214 
PRIMCOORD
36 1
Li	      4.19220     10.33826      6.37722         0.066323     -0.029154      0.035582
Li	      2.16594      6.23634      8.33297        -0.038558      0.070675     -0.038337
Li	      4.16133      8.27157      8.31019        -0.000802     -0.048927     -0.069809
Li	      4.16597      6.26480     10.35150        -0.030850      0.025966     -0.227428
Li	      2.11596      2.08601      4.13892         0.022721     -0.080748     -0.046040
Li	      6.26694      4.16498      6.34853        -0.026094      0.011236      0.030106
Li	      6.18077      8.35119      6.46556        -0.015623      0.030202      0.194557
Li	      4.17145      4.31090      8.36293         0.026581     -0.062198     -0.014447
Li	      6.13805      6.25708      8.38641        -0.039397      0.045453     -0.021006
Ti	      6.31869      8.29944     10.37100         0.011900      0.054309     -0.553369
Ti	      4.22826      4.15523      4.18687         0.368451      0.039207     -0.144424
Ti	      8.27114      6.18065      6.38251        -0.241221      0.216902      0.221380
Mn	      4.20565      6.26871      6.41428        -0.033791     -0.063832      0.053667
V	      2.04663      6.23865      4.26186         0.139068     -0.012598     -0.062959
Co	      2.07921      4.16324      2.12386        -0.059535     -0.039239      0.066818
Cu	      6.32089      2.15808      8.32406         0.044689     -0.015289      0.047407
Ni	      2.08134      2.11011      0.04787        -0.062419     -0.056604      0.020137
Ni	      6.25118      4.21732     10.49277        -0.107984     -0.044122      0.058785
O	      2.02860      2.24915      2.07034         0.168376     -1.147256      0.079210
O	      4.05012      4.24963      2.24803         0.577700     -0.074764      0.203230
O	      4.22208      2.16244      4.30077        -0.010069      0.080702     -0.003219
O	      6.11262      4.10052      4.13504        -0.126147     -0.082548      0.112696
O	      6.14283      2.10635      6.11287        -0.098993      0.032912     -0.099262
O	      8.33539      4.25508      6.42137         0.016289      0.116338      0.075714
O	      2.12841      4.18455      4.06583         0.068454     -0.039393     -0.058456
O	      4.12073      6.16281      4.42661         0.068816     -0.099530      0.014197
O	      4.14342      4.12227      6.20378         0.055613     -0.026496     -0.108568
O	      6.41499      6.24393      6.29604         0.288027     -0.046549      0.038279
O	      6.38776      4.11671      8.47851        -0.656574      0.256307     -0.109553
O	      8.42769      6.20782      8.40239        -0.063160      0.887353     -0.344448
O	      2.05051      6.27744      6.19660        -0.013172     -0.122129      0.165748
O	      4.14427      8.25989      6.24681         0.125090      0.041695      0.118176
O	      4.17410      6.26129      8.26060        -0.011498      0.003152      0.081180
O	      6.23998      8.34430      8.54543        -0.020895     -0.028554      0.420021
O	      6.30593      6.31388     10.44753        -0.175192      0.230801     -0.041348
O	      8.27776      8.36661     10.52029        -0.216126     -0.023280     -0.094216
