# total energy = -227.81359161 eV
 
CRYSTAL
PRIMVEC
-0.014465 6.338041 6.228975 
6.417454 -0.006337 6.221314 
4.267235 4.209530 0.006320 
PRIMCOORD
36 1
Li	      6.40008      4.17745      2.30524        -0.000088      0.013610      0.008686
Li	      4.32630      2.09291      2.27442         0.003525     -0.024532     -0.024839
Li	      4.13863      0.23511      4.01692        -0.028970     -0.050824     -0.040922
Li	      6.14589      2.24086      4.05490         0.026549      0.068334     -0.024605
Li	      2.11494      4.25727      2.16092        -0.007273     -0.019508      0.000694
Li	      2.31484      1.99236      4.07117        -0.015817     -0.013504     -0.068216
Li	      4.41069      4.02044      4.05929         0.011910     -0.021397     -0.070484
Li	      4.21328      2.14551      5.96413         0.004516      0.002055      0.047189
Li	      8.54714      8.41461      8.40544         0.001970      0.014168      0.053595
Ti	     10.51520      4.24201      6.18661        -0.247168      0.147817      0.070971
Ti	      6.46039      8.40513      6.33066         0.146058     -0.171433      0.373622
Ti	      4.31503      6.24521      6.28980         0.108918     -0.156429      0.319600
Mn	     10.60168      6.35899      8.32804         0.050085      0.090601     -0.009971
V	      2.14997      8.42963      6.26373        -0.036953      0.037085      0.006826
Co	      6.45563      4.20894      6.07471         0.026616     -0.025192      0.008930
Cu	      0.02606      4.21899      4.12085        -0.078613     -0.023894     -0.051109
Cu	      2.14657      6.29328      4.11960         0.032181      0.078834     -0.043168
Ni	      6.43771      6.29580      8.38554        -0.041750     -0.022600      0.065821
O	      1.95222      2.09926      1.86339        -0.019859      0.003550      0.105507
O	      4.21369      4.41043      1.91121        -0.001878     -0.018358     -0.061294
O	      4.23412      2.13634      4.12402        -0.069432      0.022982     -0.056788
O	      6.40649      4.20726      4.20155        -0.013550      0.024230     -0.050283
O	      6.57238      1.93280      6.08267        -0.127612     -0.177016     -0.024693
O	      8.64077      4.07904      6.18985         0.222588      0.015760      0.016063
O	      1.98200      4.34338      4.33760         0.051526     -0.098731     -0.100023
O	      4.38578      6.47583      4.34391         0.128401      0.015186     -0.000188
O	      4.11258      4.34578      6.17669        -0.161981      0.177421      0.024444
O	      6.31255      6.45219      6.29030        -0.025375      0.164406     -0.041661
O	      6.38905      4.12336      8.08207        -0.016585     -0.128946     -0.065274
O	      8.61142      6.33269      8.36587         0.069480     -0.010856     -0.002897
O	      2.19912      6.30202      6.27007         0.021315     -0.070763      0.084907
O	      4.24150      8.51775      6.46154         0.091170      0.009161      0.163512
O	      4.35945      6.29000      8.15457        -0.106308      0.026489     -0.234699
O	      6.43012      8.39043      8.19798         0.046974      0.115115     -0.322342
O	      6.33962      6.19432     10.45826        -0.116532     -0.009248      0.106724
O	      8.70624      8.26985     10.61931         0.071961      0.016427     -0.163634
