# total energy = -231.13720504 eV
 
CRYSTAL
PRIMVEC
0.039670 6.380713 6.250547 
6.282141 0.034913 6.255684 
4.215461 4.284624 -0.004125 
PRIMCOORD
36 1
Li	      6.28315      4.34832      2.17803         0.011637     -0.017898      0.027180
Li	      4.15952      2.21496      2.15882         0.029752      0.016157     -0.012720
Li	      4.17053      0.08583      4.09881        -0.054560      0.017905     -0.006995
Li	      2.11966      4.24720      2.12406         0.038139     -0.040359     -0.071627
Li	      2.22532      2.29210      4.07225         0.025925      0.012406     -0.027720
Li	      4.11243      4.21919      4.17211         0.027785      0.032587      0.012459
Li	      2.13188      4.28932      6.14292         0.035349      0.061261      0.045385
Li	      4.23779      4.25063      8.32517        -0.085997      0.040920     -0.019924
Li	      6.39647      6.39516      8.37618         0.025410      0.053934     -0.046741
Ti	      4.17169      6.32398      2.17400         0.193901     -0.275162      0.249834
Ti	      6.31522      4.38586      6.22692         0.047581      0.051933     -0.315334
Ti	      4.22749      6.46311      6.50130        -0.135189     -0.037099      0.689447
Mn	      2.16285      8.49504      6.28873         0.173179     -0.063593      0.126502
V	      6.27493      8.53977     10.28089         0.077439      0.039942     -0.054405
Co	      6.34444      4.30045     10.35016        -0.042200      0.002084      0.004074
Cu	      4.19214      4.23531      0.03203        -0.000562     -0.037098     -0.025978
Cu	      4.17306      2.19353      6.19481        -0.155538      0.003692     -0.008334
Cu	      2.07826      6.30840      4.13744         0.159878      0.105354      0.018914
O	      1.94426      2.13938      1.98748        -0.135422      0.023863      0.191700
O	      4.20766      4.40987      1.95904        -0.056153      0.205307      0.168818
O	      4.28862      2.16740      4.22785        -0.095750     -0.025877     -0.128854
O	      6.30908      4.11682      4.28777        -0.010840      0.076677      0.187742
O	      6.22266      2.23683      6.20166        -0.159472      0.209329      0.022500
O	      8.29960      4.07292      6.22721        -0.256481      0.050628     -0.011067
O	      2.05204      4.36913      4.13083         0.045532     -0.055386     -0.043438
O	      4.20154      6.40609      4.05875        -0.061444      0.015426     -0.333570
O	      4.33140      4.52600      6.23541         0.050322      0.113059      0.000032
O	      6.31805      6.30041      6.22230        -0.082587     -0.097843     -0.002849
O	      6.28039      4.16991      8.18877         0.008092     -0.001443      0.106769
O	      8.53169      6.46536      8.13211        -0.152355     -0.029533      0.117912
O	      2.28760      6.51519      6.37161         0.297994     -0.108491      0.018200
O	      4.31802      8.40209      6.24618         0.202952     -0.180239     -0.084844
O	      4.29574      6.43703      8.30356         0.012042     -0.023472     -0.619269
O	      6.37411      8.52499      8.54752        -0.004461     -0.037943      0.033076
O	      6.33131      6.48574     10.57611         0.023716     -0.118458     -0.074145
O	      8.37314      8.39371     10.54339         0.002387      0.017431     -0.132729
