# total energy = -228.29879653 eV
 
CRYSTAL
PRIMVEC
0.022122 6.356949 6.284264 
6.166930 0.017060 6.289246 
4.109635 4.239780 0.013213 
PRIMCOORD
36 1
Li	      4.11263      4.23086      0.06083        -0.013915     -0.029228      0.017041
Li	      4.15298      2.15688      2.16292         0.024413     -0.025840      0.055463
Li	      8.20300      4.30811      4.26072         0.023973     -0.054153      0.094874
Li	      4.12446      2.27542      6.25511         0.006466     -0.010879     -0.005780
Li	      6.04878      4.26979      6.27365         0.126392      0.012764     -0.012093
Li	      2.09451      6.34488      4.23693        -0.025495      0.015092     -0.011344
Li	      2.20760      4.29753      6.25136        -0.151439      0.035639     -0.029155
Li	      4.08758      6.20150      6.26795        -0.017211      0.109196     -0.007858
Li	      4.12976      4.22804      8.13896         0.018518     -0.010011     -0.018954
Ti	      8.19849      2.20402      6.32032        -0.011460      0.154558     -0.029776
Ti	      0.05807      4.27610      4.22339         0.003710      0.200422      0.128009
Ti	      6.23883      6.38125      8.22196         0.157749     -0.031913     -0.133696
Mn	      6.09891      2.08806      4.26802         0.184770     -0.088421     -0.053521
V	      2.19016      6.32720      8.37139        -0.096540     -0.016056      0.000734
Cu	     10.19337      6.39454      8.34553        -0.053965      0.084489     -0.128448
Cu	      4.14369      4.23933      4.27861         0.019142     -0.076268     -0.064516
Ni	      2.13104      4.24371      2.10561         0.001063      0.031783     -0.024793
Ni	      6.22644      6.33934      4.28559         0.021101     -0.028866      0.020060
O	      4.11499      4.27467      6.16829         0.005545      0.004009      0.062839
O	      2.11514      2.03933      2.07440         0.051097     -0.034747      0.001322
O	      4.26085      4.21354      2.24897         0.065757     -0.190788      0.002427
O	      4.21194      2.05194      4.24963        -0.098710      0.021051      0.019321
O	      6.23029      4.28076      4.10464        -0.068756      0.054962      0.126372
O	      6.22188      2.10381      6.32116         0.020682     -0.038518     -0.147684
O	      8.24174      4.06410      6.42364        -0.003276     -0.278821     -0.175373
O	      1.97291      4.19340      4.14441        -0.105511      0.122103      0.114102
O	      4.12272      6.55557      4.00822        -0.089744      0.021871      0.100351
O	      6.13961      6.39826      6.38746        -0.009570      0.017213      0.234070
O	      6.13149      4.42594      8.44798        -0.062499      0.210426      0.002626
O	      8.11894      6.34155      8.35550        -0.230429      0.131052     -0.042940
O	      2.03402      6.45718      6.45441         0.022193      0.004286     -0.117573
O	      4.03312      8.47749      6.11701        -0.022261     -0.020125     -0.151141
O	      4.02211      6.34902      8.36790         0.188811     -0.013816     -0.008421
O	      6.19090      8.46825      8.48828         0.005022     -0.084666      0.070704
O	      6.14977      6.25276     10.35199         0.026054     -0.205744     -0.018286
O	      8.15767      8.44324     10.65391         0.088321      0.007946      0.131039
