# total energy = -228.35546132 eV
 
CRYSTAL
PRIMVEC
0.002154 6.356442 6.172927 
6.312028 -0.017178 6.192571 
4.194924 4.237353 0.001932 
PRIMCOORD
36 1
Li	     10.48221      4.26965      6.25658        -0.014284      0.047778      0.039164
Li	      2.07863      2.13200      0.06936         0.057338     -0.023676     -0.016314
Li	      6.21127      4.28785      2.09382        -0.059339      0.066422      0.008959
Li	      2.18709      4.18490      2.13294         0.041227      0.053266      0.010662
Li	      2.14639      2.15003      4.03475        -0.030677      0.012426      0.072684
Li	      4.16619      4.18749      4.01671        -0.024459      0.070657     -0.020338
Li	      6.35546      4.26276     10.24409         0.059742     -0.050626     -0.000234
Li	      8.34213      6.32206     10.25823         0.001607     -0.028342     -0.007620
Li	      6.37320      6.37155      8.27075         0.089221     -0.069350     -0.043963
Ti	      4.33735      6.27665     10.22798         0.183119     -0.314076      0.006181
Ti	      2.09211      4.27177      6.14697         0.104642      0.051192     -0.626492
Ti	      4.15913      6.39372      6.05258        -0.022780      0.082082     -0.416770
Mn	      0.10412      2.07738      2.08523        -0.192038      0.043929      0.061239
V	      6.38744      4.20839      6.17649        -0.104124      0.097315      0.155986
Cu	      4.08630      2.21177      2.10056         0.004075     -0.125479      0.177023
Cu	      8.44981      6.31010      6.21043        -0.060857     -0.306746     -0.229843
Cu	      8.38023      8.41947      8.29661         0.100316     -0.125348      0.052546
Ni	      6.29535      8.44378     10.23524         0.073397      0.017582      0.121327
O	      2.10589      2.12419      2.06718         0.145908     -0.009430      0.041202
O	      4.19344      4.45062      2.05879        -0.002295     -0.176068      0.005184
O	      4.22580      1.97632      4.16846        -0.237889      0.225048     -0.220253
O	      6.34298      4.21638      4.30080         0.044525      0.045896     -0.186375
O	      6.30215      2.25248      6.11580         0.196813     -0.109945     -0.068290
O	      8.30958      4.18724      6.06519         0.186175     -0.069432     -0.266292
O	      2.08403      4.21590      4.32481         0.031699     -0.018559      0.333693
O	      4.18830      6.40760      4.23910        -0.023814     -0.028590      0.469862
O	      4.18223      4.35610      6.22969        -0.092188      0.228526     -0.169488
O	      6.20568      6.31509      6.23574        -0.256409      0.074605      0.000926
O	      6.43425      4.09648      8.04608        -0.035633      0.186343      0.113381
O	      8.51983      6.44762      8.16226        -0.040997      0.044725      0.329681
O	      2.23146      6.20400      6.19044        -0.017708     -0.093702      0.034440
O	      4.28785      8.33050      6.24999         0.058689      0.000549     -0.129137
O	      4.16517      6.18830      8.29603        -0.010933      0.141910      0.088154
O	      6.09216      8.46198      8.18567         0.041692     -0.029196      0.186052
O	      6.20028      6.33470     10.31939        -0.295483     -0.064099     -0.061617
O	      8.35879      8.55715     10.27508         0.101722      0.152415      0.154678
