# total energy = -92.14827503 eV
 
CRYSTAL
PRIMVEC
-2.131110 4.371629 -2.130780 
2.070827 4.311071 2.069809 
2.109436 0.031005 -6.309613 
PRIMCOORD
16 1
Li	      0.02484      4.49918     -4.41513         0.117991     -0.037707      0.477740
Li	      2.10830      6.72774     -4.36209        -0.052954     -0.360686      0.354445
Li	     -0.01546      4.47000     -0.16931         0.048291     -0.063690      0.311152
Li	     -0.00429      2.25764     -2.19390         0.235065      0.036082      0.000392
Mn	      0.00092      0.00103     -0.00120         0.334451      3.356500     -2.409577
Mn	     -0.00962      6.72367     -2.24903         0.337693     -1.629885     -0.384822
Ni	      2.12287      4.47473     -2.18441        -0.697002      0.068381     -0.500723
Ni	      2.11596      2.25124     -4.30702        -0.527055      0.847503      0.321864
O	     -0.02893      4.58296     -6.65296         0.071581     -0.383815      2.255176
O	     -0.04363      2.34015     -4.26722        -0.601421     -0.618424      0.065031
O	      2.26567      4.42312     -4.35617        -0.001087     -0.544375      0.583531
O	      2.12642      4.27602      0.03867        -0.246707     -0.234029     -0.672985
O	      2.13204      2.29854     -2.08973        -0.206194      0.738560      0.335893
O	     -0.04056      6.88262     -0.14658         0.195419     -1.873183     -0.528202
O	     -0.10127      4.66821     -2.19426         0.399171      0.461852      0.361330
O	      0.08256      2.06250     -0.01887         0.592756      0.236915     -0.570243
