# total energy = -228.41186520 eV
 
CRYSTAL
PRIMVEC
0.027873 6.200798 6.288618 
6.289044 -0.008327 6.324659 
4.206120 4.171319 -0.018962 
PRIMCOORD
36 1
Li	      4.23101     10.27003      6.21624        -0.009029      0.082691     -0.083035
Li	      2.29754      8.27172      6.23529         0.033085     -0.016585     -0.015761
Li	      4.22244      8.27823      8.22134        -0.019612     -0.006507     -0.010233
Li	      6.34733      8.23737     10.53223         0.006737     -0.065185      0.042394
Li	     10.42575      6.22243      8.39766        -0.005526     -0.002123      0.011866
Li	      8.41389      6.19963      6.36722         0.001909     -0.039506      0.028646
Li	      4.18730      8.31120      4.34306        -0.019262      0.056299     -0.035470
Li	      8.35490      6.29160     10.46435        -0.071445      0.035621     -0.046681
Li	      4.23627      6.40038      6.25467        -0.019249     -0.017280     -0.024461
Ti	      2.11765      6.20625      8.23741        -0.074894      0.047788     -0.583408
Ti	      4.15700      4.19922      4.23275        -0.284619      0.167039     -0.008005
Ti	      6.32732      3.97792      6.38487         0.076890     -0.643222      0.233180
Mn	      6.30017      6.24175      4.22555         0.005164      0.022385     -0.054523
V	      8.52066     10.28306     10.51000         0.197181      0.096440      0.035663
Ni	      8.46160      4.18522      8.36105        -0.001353     -0.097412      0.038638
Ni	      6.19753      8.29330      6.29436         0.135987      0.069665     -0.135364
Ni	      8.42636      8.23106      8.39701         0.076591     -0.027967     -0.078336
Ni	      6.34119      6.26965      8.38024        -0.061907      0.061730      0.049619
O	      2.10740      1.97209      2.23974        -0.019805     -0.125240      0.055233
O	      4.31490      4.12659      2.24322         0.165927     -0.001122      0.168030
O	      4.05102      2.02711      4.22331        -0.022189     -0.018037      0.059105
O	      6.27167      4.06238      4.24519        -0.036971      0.001508      0.004225
O	      6.30009      2.17845      6.34181        -0.004727      0.567579      0.029721
O	      8.30538      4.14502      6.23522        -0.163538     -0.033587     -0.084661
O	      2.26218      4.21577      4.16424         0.267297      0.021744      0.040507
O	      4.34290      6.09400      4.19071        -0.038021     -0.165766      0.013298
O	      4.29539      4.12424      6.19357         0.129334     -0.003097     -0.141279
O	      6.29526      6.19319      6.21467         0.019798     -0.154046     -0.077524
O	      6.33131      4.19943      8.28693        -0.011189     -0.148168     -0.220422
O	      8.35465      6.21176      8.41898         0.120851     -0.003146      0.009210
O	      2.11570      6.21925      6.42208         0.038129      0.112568      0.497944
O	      4.24588      8.31628      6.26036        -0.089802      0.026777      0.012826
O	      4.13396      6.15253      8.51520        -0.155506      0.135858     -0.008127
O	      6.37585      8.37242      8.33753        -0.083214      0.185161      0.138137
O	      6.13657      6.30557     10.44726        -0.054864     -0.094641      0.059491
O	      8.41370      8.46414     10.46185        -0.028156     -0.028217      0.079557
