# total energy = -226.85762474 eV
 
CRYSTAL
PRIMVEC
-0.017698 6.317451 6.316843 
6.241617 0.024772 6.274569 
4.180735 4.202975 -0.003184 
PRIMCOORD
36 1
Li	      6.22372      4.26856      2.27150        -0.015740      0.067587     -0.056801
Li	      6.19156      2.32979      4.19061         0.026705      0.053203      0.013773
Li	      0.04613      2.09206      2.13676         0.035076      0.023954     -0.025451
Li	      6.26459      6.17709      4.14532        -0.002831      0.034876      0.000701
Li	      4.34708      4.16935      4.15732        -0.006026     -0.002755     -0.003067
Li	      4.12246      2.10840      6.21776        -0.043318     -0.001245     -0.029510
Li	      6.28403      4.19515      6.10588         0.015217     -0.032692      0.011802
Li	      2.08347      6.26221      4.20868        -0.003330     -0.000758     -0.008560
Li	      6.23890      6.31597      8.37289         0.012944     -0.033040      0.017731
Ti	      6.27589      0.18661      6.30739         0.080273      0.659276      0.082330
Ti	      4.29674      6.28024      6.33988         0.478080     -0.087198      0.006430
Ti	      8.21508      8.25154      8.43850        -0.143867     -0.463754      0.119291
V	      0.05641      4.19356      4.14806        -0.133145     -0.061296      0.030546
Co	      2.06695      2.11066      0.03514         0.072245     -0.076753     -0.038359
Co	      4.13511      2.12787      2.27648        -0.151607      0.013187      0.096062
Ni	      8.22396      4.24149      4.18010         0.056106     -0.039402     -0.060727
Ni	      8.31369      4.25964      8.36204        -0.071497      0.035751      0.105376
Ni	      2.10531      4.22861      6.26270         0.055226     -0.106595      0.000335
O	      2.15369      2.18149      2.04689         0.106295     -0.023009     -0.250876
O	      4.15172      4.13243      1.96377         0.087348     -0.039294     -0.140666
O	      4.19677      2.08979      4.07746         0.021732      0.144870     -0.234501
O	      6.25831      4.23224      4.19628        -0.091322      0.057292     -0.036905
O	      6.23382      2.01848      6.26922        -0.021685     -0.576704     -0.022132
O	      8.46066      4.20583      6.27033        -0.019190     -0.491391      0.102145
O	      1.95245      4.24670      4.17921         0.045881     -0.005097      0.032760
O	      4.10950      6.50842      4.36650         0.011810     -0.006547      0.097779
O	      4.14442      4.34637      6.40166         0.161083      0.197952      0.068175
O	      6.13433      6.35683      6.29202        -0.453055     -0.107837      0.040979
O	      6.17805      4.23008      8.52370        -0.160688     -0.016990     -0.074577
O	      8.32091      6.41695      8.37390        -0.028778      0.484956      0.005461
O	      2.01049      6.30664      6.27698        -0.070674      0.509604      0.091469
O	      4.20629      8.36645      6.30151        -0.094553      0.035347      0.059122
O	      4.14520      6.32893      8.29194         0.011509      0.002168     -0.159762
O	      6.33001      8.38752      8.36038         0.191327      0.009690      0.081846
O	      6.15890      6.11836     10.64080         0.074869     -0.022858      0.091139
O	      8.36828      8.46264     10.37508        -0.032419     -0.134498     -0.013359
