# total energy = -229.01094126 eV
 
CRYSTAL
PRIMVEC
0.015132 6.590268 6.300150 
6.003779 0.037906 6.275968 
4.018577 4.392943 0.009639 
PRIMCOORD
36 1
Li	      1.96875      2.17583      0.04994         0.072855     -0.044604      0.056941
Li	      3.88726      2.22747      2.13689        -0.009621      0.028634     -0.037490
Li	      3.99790      0.06158      4.16255        -0.105351      0.067458     -0.080384
Li	      2.04666      4.30578      2.17679         0.043573     -0.119733     -0.016411
Li	      2.09322      2.28506      4.19616         0.012563      0.057935      0.024536
Li	      3.91329      4.34862      4.27086         0.024424     -0.078649     -0.023567
Li	      4.02037      2.29044      6.23315        -0.109750      0.010408     -0.032147
Li	      2.02440      6.53690      4.22106         0.043757     -0.060773      0.105283
Li	      2.10477      4.44787      6.22452        -0.106910      0.006044      0.007261
Ti	      5.93882      2.33602      4.24018        -0.446718      0.366310      0.063896
Ti	      4.09202      8.67584      4.26541         0.594010     -0.080036      0.384281
Ti	      6.09246      6.67417      8.32228        -0.520868      0.162752     -0.957757
V	      9.95417     10.96308     12.54867         0.334520     -0.220293      0.239743
Co	      3.97607      6.63136      6.27314         0.236195     -0.053769      0.271199
Co	      1.99540      0.06719      2.11501         0.371744      0.135995     -0.272295
Co	      3.99530      6.39937      2.13804         0.045381      0.090026      0.025660
Cu	      6.10252      4.48619      6.25924        -0.030873      0.170012     -0.039476
Cu	      4.04792      4.42171      8.35744        -0.158767      0.042864     -0.077380
O	      1.81675      2.16664      2.10236        -0.388932     -0.115081      0.066498
O	      4.00552      4.38651      1.99368        -0.190744     -0.035347     -0.161069
O	      4.10254      2.21521      4.16896         0.533770      0.037196      0.078852
O	      6.01885      4.23945      4.22816        -0.031788     -0.506209      0.002946
O	      5.99856      1.98749      6.17901        -0.008028     -0.009411     -0.034512
O	      8.10061      4.37315      6.26077         0.042001     -0.003178      0.000090
O	      1.91875      4.37938      4.21119        -0.505092      0.040225     -0.082496
O	      4.01184      6.75875      4.23740        -0.069100      0.110899     -0.113216
O	      4.15841      4.55879      6.36642         0.098690     -0.179400      0.067684
O	      6.06946      6.74085      6.42796        -0.151982     -0.047701      0.703068
O	      6.01901      4.60963      8.45199         0.172899      0.033375      0.171786
O	      8.05296      6.54668      8.38232         0.388071      0.034512      0.014118
O	      1.88276      6.53715      6.30502        -0.204995      0.014214      0.114656
O	      3.97979      8.88070      6.19379        -0.050565      0.207834     -0.442205
O	      4.09233      6.77048      8.30715         0.124799     -0.129979     -0.238602
O	      6.08843      8.66544      8.51480        -0.044367      0.007051      0.243585
O	      6.01346      6.57684     10.45909         0.019272      0.054932     -0.050720
O	      8.02778      8.80670     10.39554        -0.024071      0.005486      0.017643
