# total energy = -229.89514122 eV
 
CRYSTAL
PRIMVEC
0.002161 6.365074 6.301249 
6.168634 -0.034231 6.337628 
4.092806 4.247822 -0.002935 
PRIMCOORD
36 1
Li	      6.15414      6.32630     12.59591        -0.022653      0.059048     -0.015092
Li	      4.13477      2.00665      2.27530        -0.026955     -0.034855     -0.007442
Li	      5.99564      2.16000      4.17111         0.053799      0.009219      0.001084
Li	      4.19237      4.04800      4.26500        -0.010471     -0.036736      0.028186
Li	      4.15981      2.15335      6.23329         0.032667      0.002022     -0.000100
Li	      6.05662      4.27048      6.31045        -0.017003      0.022559      0.044346
Li	      4.13080      6.29383      6.42233         0.029918     -0.048199      0.044389
Li	      4.08111      4.28488      8.35386        -0.010704      0.034457     -0.007953
Li	      6.12198      6.35417      8.41142         0.059397     -0.002217     -0.012332
Ti	      8.08973      2.05021      6.34239        -0.526578      0.202746      0.046730
Ti	      6.18733      4.27277     10.57523         0.008293      0.064330     -0.071515
Ti	      6.26225      8.33387      6.43025         0.398634     -0.413251      0.366960
V	      8.32308      4.28230      8.36901         0.059623     -0.027576     -0.058811
Co	      6.19899      6.26624      4.27421         0.002498      0.101779      0.112767
Co	      6.17400     10.54646      8.42027         0.002147     -0.113396      0.361284
Co	      8.23088      6.36027     10.53985        -0.116510      0.002953     -0.096173
Ni	      4.10859      0.07182      4.17518         0.099292     -0.109742      0.153379
Ni	      6.15282      2.12015      8.42978        -0.009557     -0.022062     -0.085392
O	      2.06145      2.20744      1.97912         0.153065      0.057283     -0.128302
O	      4.01030      4.28082      2.12156         0.058895     -0.088283     -0.027978
O	      4.07953      2.05409      4.25168        -0.120706      0.113303     -0.036005
O	      6.15839      4.25715      4.03781        -0.168393     -0.013396     -0.148444
O	      6.25528      2.08845      6.33408         0.540976     -0.021335     -0.070294
O	      8.21704      4.07527      6.43116         0.006852     -0.095797      0.039748
O	      2.02054      4.26234      4.20145        -0.054670     -0.102182      0.052225
O	      4.07499      6.54014      4.13225         0.389287      0.240251      0.079777
O	      4.00359      4.24424      6.30904        -0.444358      0.003456      0.035825
O	      6.12766      6.48218      6.36319        -0.003567      0.330283     -0.141562
O	      6.35873      4.19209      8.52522        -0.021954      0.102694      0.111018
O	      8.23821      6.20479      8.46046        -0.121608      0.019755     -0.042208
O	      2.06103      6.44600      6.37794        -0.060623      0.063018      0.005011
O	      4.13473      8.51622      6.15376        -0.020633      0.002546     -0.200274
O	      3.94777      6.32737      8.45684         0.014692     -0.025958     -0.124660
O	      6.10100      8.50232      8.28420         0.035763     -0.116362     -0.391079
O	      6.20749      6.20943     10.50286        -0.253327     -0.256122      0.009643
O	      8.29668      8.48435     10.64554         0.064470      0.095766      0.173242
