# total energy = -233.22605117 eV
 
CRYSTAL
PRIMVEC
0.019500 6.240103 6.363969 
6.290639 0.013643 6.369876 
4.196144 4.166483 0.006793 
PRIMCOORD
36 1
Li	     10.45233      4.17675      6.39888        -0.026110      0.031338     -0.073552
Li	      4.28134      8.34208      8.44215        -0.080597      0.008206     -0.064833
Li	      8.39954      4.28750      8.48549         0.005653     -0.051166      0.015479
Li	      6.29995      6.26606      4.32337        -0.120665      0.037613      0.048901
Li	      8.35935      6.26766      6.47787         0.035785     -0.002095      0.046463
Li	      8.34588      6.25192     10.50107        -0.047488     -0.028944     -0.017923
Li	      6.28316      8.22143      6.44594        -0.014023     -0.051742     -0.057058
Li	      4.25792      6.26695      6.37153        -0.008258     -0.019217     -0.046186
Li	      6.41812      6.29534      8.46087         0.034051      0.021540      0.095009
Ti	      4.25384      0.14118      4.20268         0.271266     -0.237073     -0.025789
Ti	      4.05598      4.25465      4.24703        -0.240199      0.387710      0.109237
Ti	      6.30346      4.33196      6.47081        -0.022879      0.069465     -0.293899
V	      2.18868      8.14947      6.40390        -0.331675      0.229877      0.047227
Co	     10.39857      6.22101      8.48162         0.315575     -0.111376     -0.161637
Co	      8.35978      8.26322      8.42811         0.013448      0.174527      0.073521
Co	      6.30749      8.31177     10.55736         0.059304      0.095607      0.009594
Co	      0.08377      4.11918      4.20305         0.046806     -0.042941     -0.050036
Cu	      6.29550     10.33752      8.48425         0.065123      0.138393     -0.106886
O	      2.06889      2.01057      1.87653         0.033575      0.124057     -0.003866
O	      4.28963      4.12334      2.31027        -0.140672      0.093145     -0.016345
O	      4.17348      2.05224      4.27225         0.310668      0.123771     -0.009374
O	      6.32262      4.18061      4.44343         0.082082      0.187665      0.261362
O	      6.47714      2.15337      6.32889         0.015026     -0.053448     -0.219989
O	      8.30592      4.11025      6.28918        -0.022164      0.099905     -0.032917
O	      2.21752      4.14321      4.27483         0.437585     -0.010815     -0.017742
O	      4.24464      6.15870      4.23817        -0.064599     -0.059810      0.233450
O	      4.32592      4.14202      6.24457         0.023837      0.025461     -0.103284
O	      6.28420      6.14720      6.42810         0.028352     -0.147430      0.069624
O	      6.31392      4.15755      8.41760         0.082529     -0.099152      0.238226
O	      8.42651      6.28557      8.49802        -0.080807     -0.126298      0.047526
O	      2.08784      6.42795      6.21295         0.011301     -0.232361     -0.074036
O	      4.01006      8.33895      6.31628         0.202130     -0.014269     -0.116614
O	      4.10270      6.20661      8.66517         0.087205      0.035487      0.093489
O	      6.32293      8.39912      8.50764        -0.128914     -0.205598      0.237108
O	      6.17353      6.22831     10.62072        -0.382148     -0.394706     -0.078759
O	      8.42149      8.46287     10.75175        -0.450105      0.004675     -0.055489
