# total energy = -233.27893858 eV
 
CRYSTAL
PRIMVEC
-0.018840 6.379621 6.064798 
6.470391 -0.024181 6.069892 
4.300982 4.243810 -0.004064 
PRIMCOORD
36 1
Li	      6.47938      6.35189     11.96057         0.048665     -0.008696      0.002728
Li	      8.60174      8.45633     11.95765         0.009734     -0.028096     -0.016368
Li	      8.64891     10.53115     10.21272        -0.020431     -0.099671      0.002674
Li	      6.51684      8.43600     10.21154         0.128243      0.060773      0.008716
Li	      6.47141      6.35334      4.12586        -0.002373      0.005368     -0.022336
Li	      4.28353      2.11170      5.97655         0.066395     -0.038070     -0.048238
Li	     10.66462      8.53570     10.22350        -0.169771     -0.027448      0.014977
Li	      8.55642      6.44656     10.20365         0.048698      0.097312      0.033208
Li	      2.12088      4.22786      5.98562        -0.067622      0.094230     -0.047234
Ti	      2.16645      6.36590      8.06906         0.289953     -0.056456     -0.282176
Ti	      4.31684      8.48361      8.08814         0.139751     -0.336346     -0.147711
Ti	      6.38389      2.18498      8.07122        -0.097560      0.122670      0.026659
V	      2.17807      4.21418      2.01153        -0.020810     -0.059991      0.155019
Co	      4.28011      4.19641      4.13227        -0.048628      0.160791      0.132739
Co	      8.57507      8.46232      8.16387        -0.085692      0.096614      0.120228
Co	      6.52625      6.37082      8.15000         0.031758      0.035406     -0.201019
Co	      6.44893      4.21817      5.97499         0.130787     -0.046286     -0.023774
Co	      4.29034      6.37819      5.95142        -0.161225      0.233628      0.242573
O	      2.15918      2.10378      2.01422        -0.029930     -0.026847     -0.023317
O	      4.31034      4.23315      1.94652        -0.012489      0.039997      0.043434
O	      4.26513      2.14831      3.92535        -0.007593      0.081313     -0.134046
O	      6.38047      4.26403      3.91793         0.016946     -0.002023      0.098563
O	      6.48919      2.12663      6.19186        -0.127560     -0.021619      0.271981
O	      8.58683      4.22519      6.24668        -0.100750      0.048801     -0.042377
O	      2.21369      4.22415      3.85379         0.042852     -0.112463     -0.105385
O	      4.33433      6.29829      3.92368         0.097193     -0.061843     -0.366114
O	      4.35514      4.29254      6.18211         0.044246      0.026404     -0.058199
O	      6.42537      6.33651      6.26964        -0.112673     -0.121312      0.345445
O	      6.60935      4.12778      8.13672         0.001799     -0.181473     -0.036823
O	      8.73601      6.24781      8.08248         0.049560     -0.052623     -0.003506
O	      2.15469      6.37600      6.18254         0.051055     -0.093062      0.222668
O	      4.28472      8.46647      6.17379         0.048588     -0.044889      0.162683
O	      4.13916      6.49466      8.12408        -0.185296      0.198057     -0.016274
O	      6.28561      8.61280      8.08012        -0.054460      0.111073      0.027832
O	      6.44732      6.35828      9.92632         0.026102      0.028287     -0.195465
O	      8.59318      8.49358     10.03951         0.032539     -0.021510     -0.141762
