# total energy = -228.39288727 eV
 
CRYSTAL
PRIMVEC
-0.008132 6.153974 6.266348 
6.368293 -0.006685 6.264774 
4.248172 4.104085 -0.007045 
PRIMCOORD
36 1
Li	      2.12200      2.05122      0.14189         0.020715     -0.000587      0.056304
Li	      6.17850      4.16982      2.04933         0.045409     -0.022066      0.045535
Li	      6.33768      2.05168      4.27351        -0.003761      0.002534     -0.017445
Li	      0.14907      1.93335      1.99075         0.001896     -0.009985     -0.046156
Li	      2.32377      4.06038      2.03427         0.003442      0.055253     -0.043068
Li	      4.32179      4.03908      4.07979         0.047003     -0.024413     -0.014513
Li	      4.40906      2.05025      6.22221        -0.054297      0.008149     -0.009402
Li	      6.24516      8.26511      6.26566         0.088360     -0.016601     -0.009446
Li	      4.19192      6.28242      6.27375        -0.044991     -0.037868      0.037025
Ti	      8.44304      4.08797      4.31694        -0.127232      0.171260      0.176277
Ti	      2.30290      6.07585      4.26521         0.045896     -0.183040      0.067329
Ti	      4.14132      4.10013      8.17718        -0.074013      0.011294     -0.440041
V	      6.35069      6.14082      8.22162         0.010082     -0.004420      0.095374
Fe	      2.12056      2.09376      4.06793        -0.104233      0.035318      0.191114
Co	      0.04712      0.06177      0.10239         0.065777     -0.057425     -0.595478
Cu	      6.35710      3.95779      6.29174         0.017163      0.084270     -0.047017
Ni	      4.19975      2.11925      2.02603         0.103201     -0.132964      0.123748
Ni	      4.22194      8.22083      4.23391         0.096405     -0.031094      0.013923
O	      2.14068      2.06420      2.20298        -0.082967      0.003481     -0.234307
O	      4.27837      4.08489      2.10223        -0.028714      0.152177      0.296726
O	      4.14446      1.93392      4.16131         0.154833     -0.026219      0.085875
O	      6.50885      4.16475      4.22227         0.014428     -0.126162     -0.128300
O	      6.37821      2.04954      6.27252         0.026523     -0.400508      0.030586
O	      8.61254      4.09894      6.13030         0.152320      0.023995      0.053320
O	      2.07512      4.16109      4.19002         0.089406      0.132083     -0.027836
O	      4.18880      6.15944      4.19375        -0.132178     -0.125460      0.015960
O	      4.14250      4.09081      6.37790        -0.073800      0.001510      0.343848
O	      6.34271      6.04931      6.41269        -0.026218      0.148152     -0.217483
O	      6.18226      4.15221      8.38707         0.022425     -0.030608      0.166346
O	      8.33150      6.22665      8.45490         0.063252      0.011569      0.054111
O	      2.10828      6.20131      6.06944        -0.093242      0.020815     -0.024159
O	      4.27015      8.25698      6.25981        -0.038472      0.342676     -0.018266
O	      4.33456      6.09619      8.41826        -0.109482     -0.116789      0.000271
O	      6.43254      8.12121      8.34756         0.084534      0.029234     -0.005159
O	      6.30726      6.14589     10.26785        -0.000933      0.139917     -0.020250
O	      8.50326      8.21196     10.33853        -0.158538     -0.027479      0.044656
