# total energy = -228.17491572 eV
 
CRYSTAL
PRIMVEC
0.087122 6.380662 6.129725 
6.427517 0.084610 6.133796 
4.335321 4.307761 0.005016 
PRIMCOORD
36 1
Li	      2.18092      2.14823      0.10744         0.007921      0.001681     -0.071581
Li	      2.40113      6.49884      8.20073        -0.041851     -0.024463      0.029059
Li	      4.31581      8.39993      8.22343         0.075879      0.003359      0.038727
Li	      6.51913      8.63968     10.09050         0.017139     -0.002032     -0.035800
Li	      2.09695      4.18832      2.07603        -0.004910      0.058699     -0.007453
Li	      6.50202      4.36694      6.19242         0.040316      0.047661     -0.054148
Li	      4.36368      6.43287      6.28327         0.012378     -0.010215     -0.026417
Li	      4.43210      4.47045      8.17139        -0.016891     -0.062256     -0.024418
Li	      6.32629      6.37010      8.23956         0.042571      0.024216     -0.006430
Ti	      4.30810      4.30882      0.06407        -0.081118      0.060908      0.189951
Ti	      4.34866      2.20981      6.17909         0.025231      0.056006      0.027048
Ti	      6.51375      8.56394      6.30495         0.018759     -0.097005      0.549449
V	      8.62547      6.57295     10.15882         0.080295     -0.216355     -0.081531
Fe	      4.46339      4.35106      4.00679        -0.277597     -0.040539     -0.071628
Co	      6.47401      4.28095     10.14450         0.121687      0.051508     -0.027777
Cu	      4.27680      6.43706     10.12287        -0.026143     -0.033266      0.058464
Cu	      6.59931      2.32024      8.13914        -0.017786     -0.103196      0.002865
Cu	      2.21954      2.13061      4.01038         0.002700     -0.010877     -0.023377
O	      4.36080      6.42322      8.25273         0.048526     -0.019651     -0.150759
O	      2.13763      2.18223      2.09875        -0.033283     -0.038296     -0.077896
O	      4.33478      4.37108      1.95630        -0.015490     -0.002824     -0.196765
O	      4.36306      2.36344      4.17207         0.101080      0.016482      0.059420
O	      6.38988      4.39700      4.12745         0.306651     -0.095520      0.068134
O	      6.29172      2.04307      6.02203        -0.020366     -0.102001     -0.076786
O	      8.73608      4.46313      5.99000         0.131593      0.014017      0.146989
O	      2.28323      4.45291      4.12346        -0.114314      0.043717      0.000930
O	      4.17161      6.31595      4.24016        -0.086544      0.271177      0.117811
O	      4.22020      4.18383      6.12007        -0.049852     -0.074969      0.065302
O	      6.64288      6.58563      6.03784        -0.007867      0.131609      0.200928
O	      6.51076      4.25087      8.17903        -0.008226      0.138289     -0.006368
O	      8.68570      6.47112      8.12498        -0.046543     -0.019465     -0.171358
O	      2.06905      6.29971      6.06407         0.014559     -0.021332      0.125351
O	      4.52823      8.66048      6.10832        -0.141654      0.103072     -0.036655
O	      6.53013      8.58529      8.07753         0.015381     -0.002986     -0.499097
O	      6.65308      6.42309     10.27301        -0.249545     -0.211890     -0.048599
O	      8.67220      8.36298     10.26764         0.177312      0.166738      0.014416
