# total energy = -91.73209802 eV
 
CRYSTAL
PRIMVEC
-2.141455 4.392851 -2.141124 
2.080879 4.331998 2.079857 
2.119676 0.031156 -6.340242 
PRIMCOORD
16 1
Li	      0.02508      4.54296     -4.45810         0.129338     -0.045134      0.553436
Li	      2.12882      6.79322     -4.40455        -0.058791     -0.410467      0.410128
Li	     -0.00532      4.51365     -0.20174         0.064722     -0.076209      0.350582
Li	     -0.00434      2.27962     -2.21525         0.268531      0.039919     -0.005039
Mn	      0.00093      0.00104     -0.00121         0.343978      4.000270     -2.923359
Mn	     -0.00971      6.78911     -2.27092         0.372660     -1.839172     -0.455857
Ni	      2.14353      4.51829     -2.20567        -0.779166      0.076949     -0.570049
Ni	      2.13656      2.27315     -4.34894        -0.601547      0.950437      0.353797
O	     -0.02921      4.62756     -6.71772         0.048843     -0.401488      2.776222
O	     -0.03395      2.38395     -4.29866        -0.624869     -0.710987      0.079730
O	      2.28772      4.46616     -4.39856         0.012519     -0.630542      0.676423
O	      2.14712      4.31764      0.03904        -0.281250     -0.259545     -0.793761
O	      2.15279      2.32091     -2.11007        -0.225654      0.854510      0.355077
O	     -0.04095      6.94960     -0.14801         0.207098     -2.361927     -0.571784
O	     -0.10226      4.71364     -2.21562         0.467511      0.491699      0.416261
O	      0.08336      2.08257     -0.01905         0.656077      0.321686     -0.651807
