# total energy = -229.75750177 eV
 
CRYSTAL
PRIMVEC
0.032832 6.254868 6.286026 
6.260541 0.023729 6.295267 
4.184892 4.187307 0.004552 
PRIMCOORD
36 1
Li	      0.12593      6.30582      6.24970         0.118463      0.044026     -0.023077
Li	      6.21952      4.22317      2.09164        -0.036196      0.038619     -0.043236
Li	      6.18574      2.03985      4.24572        -0.039559     -0.117122      0.055503
Li	      0.03990      2.06310      2.09884         0.021866     -0.012315      0.003382
Li	      2.12860      2.09007      4.19049         0.024320      0.038340     -0.030604
Li	      4.19024      4.13763      4.14579        -0.039129     -0.027299     -0.059084
Li	      2.06810      6.24550      4.23378        -0.044522     -0.037779      0.033725
Li	      2.08659      4.18974      6.27467        -0.023022      0.039058     -0.029019
Li	      6.27847      6.27193      8.40423        -0.009868     -0.005109      0.028549
Ti	      2.22981      4.13541      2.15298         0.380444     -0.134778      0.259739
Ti	      4.13807      6.31688      6.21536        -0.210797      0.042341     -0.273201
Ti	      8.22293      8.31158      8.46822        -0.443627     -0.145729      0.051874
V	      6.27825      4.18076      6.16271        -0.036072     -0.030683      0.088660
Fe	      6.31837      4.27105     10.44646         0.101594     -0.100624      0.096357
Co	      4.20538      0.10032      4.16439         0.105860     -0.138145      0.113597
Ni	      2.04748      2.04208      0.01049         0.042376      0.053637     -0.086577
Ni	      4.28379      8.36335      8.44430         0.044826     -0.000337      0.040615
Ni	      4.17325      2.12510      6.23504        -0.012303     -0.000864     -0.055045
O	      2.15281      2.22071      2.05880        -0.060015      0.177656      0.087169
O	      4.08935      4.18839      2.09942        -0.252120      0.096377     -0.036336
O	      4.17988      2.06825      4.19438        -0.014370      0.055375     -0.061335
O	      6.28468      4.18591      4.37846        -0.020154      0.066729     -0.114875
O	      6.27745      2.23403      6.29720        -0.013662     -0.001169      0.031557
O	      8.24781      4.22061      6.41661         0.003777     -0.082060     -0.016488
O	      2.04056      4.20625      4.04198         0.090923      0.006137     -0.236161
O	      4.21066      6.35024      4.32990         0.002793     -0.007652      0.296819
O	      4.26926      4.22672      6.38765        -0.020477      0.168483      0.027385
O	      6.22656      6.17395      6.30145        -0.208653      0.018754      0.048222
O	      6.28101      4.18233      8.36349        -0.016693      0.011811     -0.076951
O	      8.37365      6.34870      8.32991        -0.014222      0.103602      0.148668
O	      2.23860      6.26115      6.29459         0.246249     -0.068160      0.000417
O	      4.20885      8.25689      6.30726         0.074453     -0.101058     -0.069684
O	      4.20094      6.16335      8.29374        -0.037150     -0.094052     -0.085087
O	      6.38922      8.35668      8.40068         0.422960     -0.012378      0.035041
O	      6.25588      6.17228     10.53545        -0.017431      0.150734     -0.057540
O	      8.44505      8.38593     10.39158        -0.110864      0.005635     -0.092980
