# total energy = -229.32188108 eV
 
CRYSTAL
PRIMVEC
-0.010358 6.223269 6.365301 
6.217734 -0.003486 6.358710 
4.156658 4.155816 -0.013547 
PRIMCOORD
36 1
Li	      6.24911      4.13048      2.18315         0.010200     -0.043997      0.065191
Li	      8.18575      4.23100      4.25045        -0.045965      0.097258      0.160474
Li	      8.30935      4.15668      8.39859        -0.071699      0.086253     -0.121743
Li	      6.26525      6.08644      4.31716         0.035972     -0.041002      0.157004
Li	      4.23829      4.10123      4.28362        -0.025313     -0.049798      0.256111
Li	      6.22256      4.21007      6.26973        -0.050917      0.023712      0.007276
Li	      6.25282      8.22634      6.41513         0.142449     -0.114621     -0.004396
Li	      4.08110      4.19286      8.40384        -0.018251     -0.061286     -0.206393
Li	      6.17901      6.25619      8.35329         0.030266     -0.021455     -0.070046
Ti	      4.11954      8.22577      8.52787         0.275040     -0.234268      0.152788
Ti	      6.21347      4.17399     10.51706         0.330455     -0.001036     -0.475447
Ti	      2.08774      6.16551      4.22296        -0.040506     -0.452483      0.017562
V	      0.06422      1.99303      2.10680        -0.187579     -0.059581      0.076403
Fe	      6.20417      2.26751      4.21620        -0.117886     -0.062666      0.035742
Co	      8.15230      6.25397      6.36500         0.082334     -0.118148     -0.039133
Co	      8.30974      2.18421      6.35871        -0.023267      0.174173      0.115515
Cu	      4.24187      6.05888      6.41386        -0.217603     -0.139831      0.172080
Ni	      0.00957      0.00929      0.01829        -0.104885      0.097310     -0.031666
O	      2.08444      2.10609      2.11790        -0.135461     -0.001140     -0.189420
O	      4.16251      4.16517      2.05166         0.081692      0.342624      0.136799
O	      4.17352      2.09050      4.13438        -0.035004     -0.038615     -0.092631
O	      6.22898      4.09880      4.24670         0.032985      0.049277     -0.137909
O	      6.25051      2.03839      6.32380        -0.359762      0.141585      0.212734
O	      8.33207      4.31930      6.34397         0.088016     -0.352273      0.019874
O	      1.93077      4.25528      4.25771        -0.275944      0.306546     -0.049426
O	      4.08131      6.30675      4.19055         0.029951      0.164630     -0.124595
O	      4.11702      3.93401      6.38124        -0.108057      0.218124      0.085779
O	      6.18046      6.17941      6.37463         0.629616      0.026920     -0.075849
O	      6.21113      4.06437      8.65829         0.010347     -0.209603      0.489545
O	      8.39589      6.22276      8.58951         0.222169     -0.029172     -0.132686
O	      2.18188      6.25553      6.17584        -0.110886      0.094163     -0.175769
O	      4.12694      8.35901      6.34600         0.058843      0.053529     -0.000415
O	      4.10653      6.36709      8.47259        -0.017029      0.239512     -0.190245
O	      6.06216      8.31084      8.57648        -0.242004     -0.003170     -0.009889
O	      6.31263      6.16095     10.61499         0.106890     -0.044429     -0.121249
O	      8.32703      8.23445     10.57305         0.020795     -0.037039      0.088029
