# total energy = -231.04397272 eV
 
CRYSTAL
PRIMVEC
0.051444 6.358082 6.158164 
6.396582 0.059278 6.151055 
4.291424 4.261119 0.012422 
PRIMCOORD
36 1
Li	      6.43812      6.36543     12.20315        -0.012857      0.041386      0.016742
Li	      4.35068      8.48243      8.18714         0.014155      0.023341      0.037262
Li	      4.34254      0.10480      4.14628         0.045445      0.025026     -0.041556
Li	      6.43446      6.40501      4.33479        -0.009216     -0.010353     -0.063183
Li	      8.36974      6.32679      6.13707        -0.008209     -0.061911      0.009598
Li	      6.50170      4.47348      6.07604         0.043598     -0.057882     -0.053532
Li	      0.12704      4.34685      4.15416         0.060792      0.110473     -0.025136
Li	      6.33557      8.33766      6.11157        -0.063999     -0.035238      0.097613
Li	      4.48853      6.46888      6.10109         0.003013     -0.004161      0.018643
Ti	      2.37525      8.53410      6.04733         0.231123      0.111188      0.156531
Ti	      6.41731      2.19980      8.13646         0.055563     -0.056100     -0.658898
Ti	      4.29544      4.33017      8.03729        -0.289897      0.299731     -0.256198
V	      4.26791      4.20063      4.16830        -0.050028     -0.003286     -0.023888
Fe	      2.20535      6.36639      8.18743         0.075194     -0.133781      0.094305
Co	      8.52807      4.31877      8.20553         0.197475     -0.315589      0.010220
Co	      6.38219      2.12820      4.19215         0.044906     -0.018041     -0.144320
Ni	      2.14151      6.32722      4.18524         0.059389     -0.019184      0.098373
Ni	      6.41309      6.41740      8.17807         0.014315      0.042822      0.124241
O	      2.01854      2.08687      2.00366         0.005522      0.201027     -0.004513
O	      4.32888      4.35817      2.13787        -0.050304      0.039905     -0.021835
O	      4.27306      2.36814      4.09230         0.242635      0.008137      0.023175
O	      6.29292      4.25309      4.03425        -0.084817     -0.062813      0.150614
O	      6.46035      2.14972      6.26370         0.045293      0.006855      0.778433
O	      8.54206      4.14971      6.20160        -0.031207     -0.044786      0.399481
O	      2.26977      4.28569      4.07429        -0.108227     -0.062905     -0.483677
O	      4.26883      6.17358      4.03259         0.044563     -0.004875      0.019710
O	      4.30834      4.28699      6.19065        -0.002109      0.004726      0.189105
O	      6.43644      6.39617      6.25416        -0.011056     -0.003545     -0.361040
O	      6.31384      4.17028      8.26813        -0.059634     -0.041771      0.063793
O	      8.66987      6.52679      8.22143         0.102635     -0.028948     -0.025919
O	      2.15533      6.53196      6.24715         0.009492      0.081685     -0.118188
O	      4.20151      8.50091      6.18433        -0.338424      0.000649     -0.097538
O	      4.25971      6.25143      8.26039        -0.063613     -0.292816      0.010130
O	      6.61961      8.58615      8.21114         0.187851     -0.008113     -0.212457
O	      6.49691      6.47123     10.17107        -0.175029      0.079534      0.251251
O	      8.59392      8.49814     10.29130        -0.124335      0.189610      0.042657
