# total energy = -234.81513510 eV
 
CRYSTAL
PRIMVEC
0.019435 6.373788 6.257844 
6.211843 0.010650 6.266356 
4.137008 4.250705 0.011224 
PRIMCOORD
36 1
Li	      4.16316     10.56173      6.30574        -0.036051     -0.032509     -0.026245
Li	      4.16391      8.44041      8.25532         0.012352     -0.024264     -0.071823
Li	      4.12715      6.36038     10.34202         0.007334     -0.014502     -0.025060
Li	      6.22653      2.14222      8.34835         0.016813      0.021747      0.021989
Li	      6.24388      6.28498      4.21455         0.006399     -0.061133     -0.023943
Li	      6.19588      4.27138      6.29455         0.006252     -0.037300      0.015544
Li	      6.16655      8.48838      6.33914        -0.002527     -0.022289      0.015813
Li	      4.21106      4.34336      8.30748         0.018598      0.026057     -0.003959
Li	      6.12303      6.36927      8.33729        -0.018229     -0.010502      0.015024
Ti	      6.09858      2.08577      4.12404        -0.070409     -0.064267     -0.155150
Ti	      2.05736      4.12274      2.04959        -0.212922     -0.077532     -0.041907
Ti	      2.15398      6.40886      4.18544         0.205560      0.092074      0.058639
V	      8.21834      6.45027      6.33860         0.051659      0.028764      0.039374
Fe	      2.10390      6.35402      8.31089        -0.053339      0.074254     -0.040621
Co	      6.22261      4.35253     10.46473        -0.043216      0.018163      0.002021
Co	      4.20825      6.39403      6.29804         0.055964      0.071263     -0.073262
Co	      8.28695      2.17129      6.28613        -0.002083      0.004029     -0.049477
Cu	      4.17599      4.26127      4.17794         0.008030      0.020163      0.070746
O	      2.06638      2.17935      2.10508         0.013792      0.145670      0.012728
O	      4.12620      4.26052      2.16001        -0.056803      0.016890     -0.101678
O	      4.21547      1.97733      4.33423         0.068214     -0.164030     -0.049537
O	      6.17066      4.12332      4.09300         0.121019     -0.006304      0.098308
O	      6.09953      2.16575      6.16959         0.031759     -0.003876     -0.037191
O	      8.30975      4.34806      6.42355         0.011637     -0.014017      0.163849
O	      2.16052      4.41294      4.09108        -0.126729      0.047708      0.017710
O	      4.06441      6.51050      4.21473        -0.215207      0.092881     -0.001040
O	      4.16604      4.15498      6.19571         0.001103     -0.077143      0.094340
O	      6.41408      6.37827      6.27989        -0.147123      0.001359      0.005391
O	      6.38634      4.27711      8.43198         0.231958     -0.024147     -0.034551
O	      8.33780      6.32987      8.38896         0.043600     -0.042611     -0.001892
O	      2.04367      6.37527      6.18436         0.034057      0.042197     -0.008406
O	      4.12134      8.48327      6.21241        -0.029008     -0.000232     -0.031333
O	      4.05417      6.35908      8.29573         0.034456     -0.019044      0.022930
O	      6.16971      8.57775      8.47363        -0.011965     -0.037265      0.146105
O	      6.33743      6.48149     10.40612         0.061301      0.102095     -0.023330
O	      8.18943      8.42324     10.44998        -0.016246     -0.072346     -0.000107
