# total energy = -233.01619053 eV
 
CRYSTAL
PRIMVEC
0.003963 6.296359 6.315391 
6.283540 0.018155 6.301207 
4.196303 4.195460 0.004833 
PRIMCOORD
36 1
Li	      4.22359     10.30830      6.31163         0.080824     -0.020575     -0.055465
Li	      4.21427      8.39042      8.26061         0.013531     -0.069541      0.013464
Li	      6.17130      6.33916      4.33361        -0.099972      0.054034     -0.026953
Li	      4.15407      4.32292      4.31076        -0.051029      0.044151      0.108965
Li	      8.22545      6.37891      6.32357         0.009576      0.081208     -0.028288
Li	      4.22485      8.26391      4.33832         0.066946     -0.088037     -0.057799
Li	      2.22830      6.26772      4.25751         0.037798     -0.071291      0.050748
Li	      6.21336      8.27638      6.28664         0.000006      0.032952      0.009935
Li	      6.31188      6.32444      8.27072        -0.012961      0.026108      0.020079
Ti	      6.15721      4.23417      2.01478         0.002914      0.006115     -0.404146
Ti	      4.21709      0.06682      4.24918         0.280242      0.318664     -0.192995
Ti	      6.25949      2.07458      4.31473        -0.214227     -0.196817      0.221822
V	      2.08583      4.23588      2.22557        -0.137808      0.086518      0.324814
Fe	      4.25392      4.13183      8.32510        -0.080728      0.020455      0.149662
Co	      6.25379      4.34238      6.29783         0.024759     -0.000790      0.104955
Co	      4.27696      6.35913      6.22345        -0.082916      0.084747      0.061965
Co	      4.19353      6.29633      2.21837         0.006207      0.022110      0.171300
Ni	      2.21353      8.38576      6.30959        -0.079753     -0.097850     -0.033480
O	      2.09972      2.10127      2.07370         0.020445     -0.017515      0.093449
O	      4.20775      4.18698      2.08976         0.134525     -0.039121     -0.073072
O	      4.31051      1.98199      4.20445         0.186595     -0.197671      0.076387
O	      6.36049      4.14330      4.13225         0.016394     -0.046374     -0.143944
O	      6.37173      2.18125      6.18389        -0.061915     -0.025644     -0.354178
O	      8.37924      4.17210      6.25325         0.081562      0.160640      0.006211
O	      2.13050      4.17835      3.96303        -0.022374      0.035369     -0.302479
O	      4.16684      6.27180      4.19843         0.064774      0.012190     -0.288190
O	      4.20791      4.21160      6.41484         0.004381      0.365456     -0.146206
O	      6.30374      6.31595      6.29647        -0.460889     -0.057231     -0.003439
O	      6.35528      4.22382      8.41336         0.064222     -0.040267      0.045831
O	      8.39638      6.24527      8.38281         0.059771     -0.092781     -0.009797
O	      2.09458      6.32096      6.47090         0.200419     -0.112340      0.228165
O	      4.19529      8.37784      6.28844         0.186382     -0.580263      0.050044
O	      4.07375      6.22857      8.55431         0.011081      0.091722      0.393759
O	      6.36206      8.55335      8.54009        -0.050851      0.042882      0.051517
O	      6.15810      6.43815     10.49106        -0.161194      0.202990      0.097468
O	      8.29639      8.48214     10.47122        -0.036734      0.065793     -0.160110
