# total energy = -226.47843141 eV
 
CRYSTAL
PRIMVEC
0.011974 6.156691 6.483961 
6.274119 0.033899 6.461803 
4.191519 4.098391 0.013973 
PRIMCOORD
36 1
Li	      4.15582      8.17944      8.58397         0.018454      0.024965     -0.020762
Li	      6.36546      8.23098     10.87301         0.015614      0.048115     -0.006042
Li	     10.44298      6.22693      8.70520        -0.006404     -0.000660     -0.042779
Li	      6.19891      6.20594      4.46472         0.045013     -0.035142      0.068326
Li	      4.21705      2.21101      6.46040        -0.012345     -0.046958     -0.000573
Li	      6.11907      4.09138      6.50509         0.051792      0.017137     -0.039496
Li	      2.26386      4.12723      6.36828        -0.051623      0.001963     -0.019001
Li	      4.19056      6.06094      6.33820        -0.007143      0.040075      0.014074
Li	      4.25850      4.08752      8.38116        -0.023396     -0.027229     -0.052193
Ti	      6.22073     10.12104      8.71202        -0.059045     -0.154982      0.096951
Ti	      4.22302      0.20661      4.33829        -0.177275      0.435964     -0.031762
Ti	      6.29835      6.19223      8.40966         0.062990      0.033294     -0.648272
V	      2.07037      2.02956      0.03382         0.052746     -0.023203     -0.007219
Fe	      2.08425      4.08181      2.24202         0.088945     -0.033619     -0.063697
Cu	      4.21137      4.12074      4.47785         0.080586     -0.098893     -0.110587
Cu	      8.39074      6.19806     10.73877        -0.060618     -0.009928      0.035481
Ni	      0.03458      6.15577      6.49415         0.025061     -0.013287      0.043688
Ni	      4.17231      8.13748      4.35935         0.007243      0.062118     -0.025116
O	      4.20572      4.11755      6.38398         0.005168     -0.009319      0.130588
O	      2.11699      2.06411      2.06000        -0.020665     -0.060014     -0.024537
O	      4.26691      4.08483      2.22185         0.057290      0.001051     -0.049453
O	      4.21916      2.02513      4.37707         0.039951     -0.485725      0.006128
O	      6.47819      4.13498      4.15724         0.218156      0.040914     -0.124280
O	      6.49853      2.05708      6.48050         0.018862      0.073944     -0.007350
O	      8.40749      4.09214      6.39795        -0.054225     -0.046158      0.035081
O	      1.99314      4.15417      4.18870        -0.051604     -0.105812      0.073618
O	      4.08459      6.11372      4.31052         0.038572     -0.045390     -0.026062
O	      6.19147      6.21575      6.62052         0.014573      0.015010      0.576919
O	      6.33325      4.23249      8.63808        -0.097157      0.094858     -0.022121
O	      8.23560      6.11184      8.49737        -0.112636      0.060478     -0.104285
O	      2.10586      6.19368      6.75306         0.109747      0.000460      0.231623
O	      4.00141      8.24428      6.47106        -0.061332     -0.122953      0.028388
O	      4.23782      6.15453      8.82848         0.038135      0.018177      0.059260
O	      6.29938      8.23741      8.66611         0.005218      0.173522     -0.013550
O	      6.23885      6.17802     10.77887        -0.095580      0.053659     -0.028828
O	      8.40678      8.19887     10.97308        -0.103067      0.123568      0.067839
