# total energy = -226.39136795 eV
 
CRYSTAL
PRIMVEC
0.056363 5.986072 6.779360 
6.148808 0.006594 6.829054 
4.103635 4.029663 -0.000668 
PRIMCOORD
36 1
Li	      2.08276      2.05733      0.25544        -0.094836      0.001339     -0.008576
Li	      4.06923      8.00582      8.82570         0.035816      0.004819      0.030570
Li	      6.16705      7.96076     11.26181         0.046844      0.020780     -0.039305
Li	      6.23406      2.05526      9.04674        -0.059444     -0.029073     -0.015599
Li	      1.99866      2.07794      4.25686        -0.056388      0.017881     -0.039476
Li	      6.15162      4.00085      6.95056         0.028057      0.011940      0.020363
Li	      4.20486      8.00931      4.64084        -0.023972     -0.034327      0.009479
Li	      4.23483      6.09675      6.71734         0.020486     -0.114646     -0.096561
Li	      4.20594      3.97099      9.10731         0.007374      0.025928      0.116996
Ti	      8.08884      3.97728      4.51990        -0.065461     -0.141139      0.036146
Ti	      4.16587      2.02102      6.83586         0.204053      0.072349      0.058881
Ti	      2.11088      6.06628      4.77909         0.057344     -0.066382      0.157077
V	      6.18666      6.04983      9.08217        -0.028808     -0.000238      0.061984
Fe	      4.13031      3.98641      4.44422         0.009904      0.020537      0.131607
Cu	      4.06177      3.99638      0.08076        -0.072713      0.090131      0.004367
Cu	      2.09153      3.93310      2.26679         0.001380      0.097506     -0.065845
Cu	      6.16329      7.99808      6.79731         0.111007     -0.038826     -0.052430
Ni	      6.14623      4.02393      2.30171         0.051806     -0.083150     -0.096971
O	      4.23301      8.08626      6.79988        -0.062631     -0.085013      0.021968
O	      2.04297      2.00297      2.24909         0.012178     -0.052800      0.007257
O	      4.11773      3.97027      2.49444         0.014534     -0.045394     -0.017616
O	      4.07098      1.95526      4.77202        -0.001207     -0.079697      0.000990
O	      6.19631      4.00549      4.44701         0.158771      0.030832      0.021466
O	      6.03298      1.92738      6.90198        -0.168527      0.127320     -0.044341
O	      8.21613      4.03350      6.49865        -0.128630      0.030601     -0.206729
O	      2.13489      4.14201      4.49878        -0.114109      0.079802     -0.012110
O	      3.99932      5.99826      4.57724        -0.105636      0.089142      0.029191
O	      4.09341      3.92133      6.63955         0.087887     -0.111486     -0.017061
O	      6.22369      6.02941      7.03709        -0.011535     -0.148184     -0.017714
O	      6.23474      4.17114      8.99722        -0.057477     -0.125288     -0.037867
O	      8.19808      5.97289      8.87706         0.091125      0.102726     -0.074954
O	      2.06758      6.02629      6.66814         0.091481      0.163398     -0.058140
O	      4.18344      5.99235      9.32404        -0.001936      0.017202      0.066792
O	      6.23655      7.89923      9.12352         0.004304      0.060262      0.129976
O	      6.23863      5.99625     11.12019         0.017919      0.020898     -0.067016
O	      8.24152      7.99988     11.30532         0.001038      0.070252      0.063199
