# total energy = -91.25337389 eV
 
CRYSTAL
PRIMVEC
-2.151800 4.414072 -2.151467 
2.090932 4.352926 2.089904 
2.129916 0.031306 -6.370871 
PRIMCOORD
16 1
Li	      0.02533      4.58697     -4.50127         0.140971     -0.057865      0.630531
Li	      2.14944      6.85901     -4.44721        -0.067434     -0.468388      0.466775
Li	      0.00492      4.55752     -0.23447         0.078644     -0.089234      0.386998
Li	     -0.00438      2.30169     -2.23671         0.300839      0.042641     -0.014447
Mn	      0.00094      0.00105     -0.00122         0.341922      4.679922     -3.471622
Mn	     -0.00980      6.85486     -2.29291         0.407631     -2.030954     -0.525314
Ni	      2.16429      4.56204     -2.22704        -0.852875      0.087706     -0.645123
Ni	      2.15725      2.29516     -4.39105        -0.678865      1.043687      0.389173
O	     -0.02949      4.67237     -6.78277         0.026850     -0.405729      3.339670
O	     -0.02418      2.42807     -4.33020        -0.633909     -0.790584      0.092112
O	      2.30988      4.50942     -4.44116         0.030642     -0.714001      0.768247
O	      2.16791      4.35945      0.03942        -0.316153     -0.276911     -0.911169
O	      2.17364      2.34339     -2.13050        -0.244768      0.964362      0.367396
O	     -0.04135      7.01691     -0.14944         0.222244     -2.910605     -0.604723
O	     -0.10325      4.75929     -2.23708         0.534002      0.511978      0.469292
O	      0.08417      2.10274     -0.01923         0.710260      0.413975     -0.737796
