# total energy = -226.24588728 eV
 
CRYSTAL
PRIMVEC
0.051779 6.176689 6.580018 
6.235320 0.051351 6.579450 
4.169087 4.129615 0.022909 
PRIMCOORD
36 1
Li	      8.38399      8.27110     13.09132        -0.000428      0.053396     -0.025099
Li	      4.29320      8.26113      8.70043        -0.131836      0.011110     -0.000245
Li	      6.20169      2.12011      8.69320        -0.031181      0.019800      0.004826
Li	      2.11550      2.12709      4.45857        -0.003435      0.043787      0.039813
Li	      6.22070      4.14846      6.63512         0.013113      0.026287      0.022835
Li	      4.13789      8.19549      4.47391         0.052153     -0.098185      0.009122
Li	      4.26417      6.30304      6.57905         0.028569     -0.035902     -0.112755
Li	      8.40036      8.28977      8.94872         0.178136     -0.098622      0.105644
Li	      6.24735      6.24436      8.78348         0.041625     -0.121781      0.009609
Ti	      8.13977      4.03443      8.76202        -0.466672      0.194981      0.192642
Ti	      4.21190      4.28505      4.32621        -0.290719      0.387880      0.253850
Ti	      8.28311      6.24616      6.66170        -0.231866      0.084608     -0.064803
V	      2.27431      6.18680      8.78458         0.287234     -0.530840     -0.171039
Fe	      0.08851      6.09507      6.48026        -0.257191      0.007400     -0.141063
Cu	      4.28060      6.19650     10.92812         0.049175     -0.318027     -0.004681
Cu	      6.32856      8.26517     10.99679        -0.005872      0.003409      0.165554
Cu	      8.33082      6.30601     10.90747        -0.112931      0.001387      0.070285
Cu	      6.25479      8.23009      6.65102         0.112931     -0.200403     -0.207630
O	      8.30709      8.33517     11.03278        -0.042706     -0.218788     -0.132467
O	      2.07570      2.10041      2.16032         0.081481     -0.587988     -0.016191
O	      4.25107      4.14952      2.34217         0.142538     -0.059973     -0.159121
O	      4.22101      2.02581      4.53752         0.134041      0.597551      0.003654
O	      6.12131      4.31041      4.26200        -0.092727      0.205337     -0.474243
O	      6.12784      2.00933      6.50652         0.025568      0.046249      0.240365
O	      8.39003      4.19038      6.74309        -0.006222     -0.031629      0.446415
O	      2.21339      4.16102      4.13222        -0.021598     -0.281630     -0.466180
O	      4.05775      6.13516      4.43718         0.329801     -0.297015     -0.025544
O	      4.13215      4.06180      6.35948         0.200893      0.020710     -0.024471
O	      6.36446      6.23204      6.56720         0.137261     -0.144106      0.034101
O	      6.33954      4.13655      8.74425         0.360565     -0.011105     -0.046215
O	      8.33873      6.13480      8.56715        -0.034552     -0.009578     -0.345235
O	      2.06407      6.10614      6.84983         0.194358      0.353942      0.994104
O	      4.30582      8.29395      6.63657        -0.141963     -0.069928      0.133838
O	      4.06297      6.24989      8.79229        -0.616129     -0.072567     -0.139144
O	      6.31774      8.42921      8.97783         0.123356      1.073298     -0.060780
O	      6.36958      6.08701     11.08046        -0.004772      0.056933     -0.109752
