# total energy = -227.41235805 eV
 
CRYSTAL
PRIMVEC
-0.007996 6.245714 6.275184 
6.254115 -0.022055 6.289046 
4.170278 4.174049 -0.015409 
PRIMCOORD
36 1
Li	      2.10975      8.31446      6.24295         0.005232     -0.015715     -0.026320
Li	      4.17255      8.30344      8.32638        -0.009714     -0.027228     -0.001009
Li	      6.27653      8.27695     10.45629        -0.010308     -0.032551      0.025207
Li	      6.24771      4.19996      6.28860        -0.001072      0.065842      0.022203
Li	     10.39951      8.34443     10.48594        -0.043370      0.055894     -0.009436
Li	      8.26807      6.29777     10.45717        -0.053468      0.075035     -0.038118
Li	      6.21279      8.30180      6.29854         0.011776     -0.003537      0.030483
Li	      8.30998      8.29566      8.38751        -0.004035     -0.019166      0.058997
Li	      6.30588      6.26444      8.35793         0.093877      0.025572      0.010771
Ti	      6.26487     10.24674      8.29145         0.032801     -0.435826     -0.144775
Ti	      8.44873     10.27901     10.50105         0.286719     -0.332146      0.075852
Ti	      6.21089      2.20719      8.28221        -0.052784      0.264722     -0.240723
V	      4.09648      4.12299      4.25152         0.010497     -0.020160     -0.012103
Fe	      4.26013      6.39054      6.26136        -0.141680     -0.131513      0.063000
Ni	      4.19247     10.33967      6.22972         0.026480      0.005233     -0.057637
Ni	      8.33038      4.13222      8.31907        -0.018658     -0.028447     -0.091182
Ni	      6.25158      6.23956      4.19132        -0.003656      0.050335      0.060541
Ni	      8.28410      6.27316      6.30142         0.008125      0.017479      0.045880
O	      1.95244      2.05541      2.14770        -0.032778     -0.141010     -0.132813
O	      4.22784      4.20475      2.12848         0.122623     -0.036083      0.075414
O	      4.14213      2.11105      4.24482         0.114240     -0.046874     -0.124577
O	      6.17813      4.17579      4.07444         0.007542     -0.115328     -0.011663
O	      6.22444      1.99331      6.41080         0.083877      0.088522      0.279645
O	      8.35389      4.18843      6.18980        -0.128325     -0.075199     -0.140281
O	      2.27821      4.14500      4.09249        -0.019006      0.064591      0.021862
O	      4.17211      6.14197      4.18219        -0.132272      0.024708     -0.080941
O	      4.19053      4.20865      6.13099         0.052161      0.115893      0.063470
O	      6.20158      6.24437      6.26080        -0.000891      0.024632      0.084895
O	      6.28098      4.04371      8.39266        -0.129847     -0.299726     -0.021996
O	      8.44129      6.18559      8.36351         0.138283      0.139861      0.138523
O	      2.12183      6.24971      6.39217         0.128138     -0.021682      0.180673
O	      4.17291      8.28406      6.25041         0.002543      0.031901      0.000833
O	      4.04639      6.26594      8.44398        -0.101813      0.022706      0.048413
O	      6.24609      8.44457      8.36499         0.023070      0.368078     -0.024112
O	      6.13685      6.23542     10.47170        -0.251753     -0.007982     -0.107211
O	      8.31119      8.47525     10.46708        -0.012553      0.349169     -0.021764
