# total energy = -230.80250692 eV
 
CRYSTAL
PRIMVEC
0.023390 6.367517 6.323405 
6.405483 -0.005677 6.352997 
4.247018 4.240891 0.020039 
PRIMCOORD
36 1
Li	      8.41949      2.13999      6.38725         0.050924      0.018862      0.048199
Li	      6.24465      2.32243      8.37417        -0.013477      0.022335      0.051873
Li	      8.31544      4.46095      8.39720        -0.057590      0.089974     -0.034392
Li	      8.61813      6.31758      6.56085        -0.000404     -0.030686      0.054140
Li	      6.50400      4.10561      6.53022         0.068329     -0.035417      0.019368
Li	      6.40759      4.27146     10.34433        -0.007353      0.033040     -0.031954
Li	      8.49933      6.36335     10.40326        -0.022026     -0.004417     -0.027640
Li	      4.27021      6.37034      6.33771        -0.011469      0.004718     -0.045076
Li	      6.58747      6.19015      8.46230         0.015401     -0.057723     -0.001754
Ti	      4.17992      8.39538      8.40813        -0.075963     -0.263946     -0.177924
Ti	      4.28204      4.36831      4.23817         0.117883      0.474660      0.018697
Ti	      6.44261      8.45490      6.42689         0.010479     -0.024613     -0.111702
V	      8.62383     10.46693     10.67022        -0.432390      0.033144     -0.254069
Fe	      6.40668      0.15435      6.33184         0.090431     -0.312774      0.194583
Fe	      6.36054      6.41029      4.27675        -0.140240     -0.100005     -0.006594
Co	      2.16182      6.36725      8.41375         0.077341     -0.015250     -0.017088
Cu	      6.51844      8.40332     10.64063         0.112389     -0.050906      0.138331
Ni	      4.45691      4.11294      8.41867        -0.150694      0.200639      0.042609
O	      2.27322      2.10375      2.17944         0.022539     -0.583907     -0.092516
O	      4.29474      4.05341      2.25994         0.086224     -0.060023     -0.024951
O	      4.15814      2.04651      4.13520         0.151134      0.119652     -0.044276
O	      6.31273      4.34716      4.26920        -0.085992     -0.090377      0.017680
O	      6.45966      2.01646      6.42238        -0.022546      0.266438     -0.075814
O	      8.62548      4.24953      6.22972        -0.040165      0.008556      0.284086
O	      2.29881      4.20042      4.30523         0.101117      0.014964      0.004641
O	      4.33719      6.21591      4.20438        -0.006906     -0.386503     -0.010816
O	      4.15105      4.25788      6.20965        -0.077932     -0.005856     -0.036601
O	      6.32387      6.56429      6.23183        -0.004984      0.253508      0.088327
O	      6.39140      4.26326      8.43056         0.215075      0.033720     -0.015462
O	      8.51226      6.42095      8.49005        -0.052126     -0.184515     -0.038118
O	      2.06235      6.23036      6.32603         0.005781     -0.151705      0.047509
O	      4.36294      8.51618      6.50060         0.038268      0.018532      0.197370
O	      4.26370      6.45190      8.55615        -0.177984      0.265943     -0.106629
O	      6.32354      8.49157      8.34413         0.046535      0.581895      0.105230
O	      6.28431      6.30366     10.65932         0.318464      0.094447     -0.110843
O	      8.54788      8.67049     10.53215        -0.148071     -0.176405     -0.048424
