# total energy = -232.44173280 eV
 
CRYSTAL
PRIMVEC
-0.003193 6.206434 6.323661 
6.282195 -0.007786 6.328170 
4.206732 4.159360 -0.023876 
PRIMCOORD
36 1
Li	      0.02741      6.16381      6.27977         0.016642      0.014610     -0.067933
Li	      6.33064     10.27740      8.37428         0.004740     -0.001431      0.023864
Li	      4.23542      8.30564      8.40541        -0.026963      0.024874      0.024604
Li	      8.39031      4.16002      4.27520         0.036737      0.008969      0.062710
Li	      8.40177      6.16488      6.26686         0.044969     -0.079158     -0.092618
Li	      6.27353      4.15665      6.29285        -0.003169     -0.061711     -0.076966
Li	      6.31778      4.19628     10.55806         0.003771      0.085307      0.038637
Li	      2.04837      6.18938      4.27333        -0.104769      0.048134      0.048351
Li	      2.09902      4.23078      6.32417        -0.010040      0.043675     -0.028320
Ti	      2.22790      8.25024      6.19154         0.005648     -0.015101     -0.539533
Ti	      6.20680      2.10352      8.35624         0.154869     -0.056557     -0.464306
Ti	      6.17564      6.36424      8.39148        -0.119178      0.340429      0.513798
V	      6.31061      6.17122      4.24008         0.338527     -0.272568      0.107208
Fe	      2.12050      4.13287      2.07574         0.053978     -0.144363      0.029285
Fe	      4.20237      4.09469      4.29736         0.187045     -0.208082     -0.004037
Co	      4.19504      6.23572      6.29576        -0.107998      0.019459     -0.051475
Cu	      6.27467      2.09030      4.19807        -0.068316      0.054714      0.125033
Cu	      8.35109      8.30585      8.40367        -0.038286      0.071444     -0.006981
O	      1.97425      2.08295      2.12833        -0.005313      0.042319      0.022828
O	      4.14724      4.29499      2.20370        -0.039060      0.043881     -0.012509
O	      4.14028      2.09233      4.26806        -0.346058      0.050646     -0.009313
O	      6.24690      4.12373      4.19869        -0.035795      0.416046      0.000699
O	      6.36079      2.03110      6.51599        -0.040189     -0.004680      0.740283
O	      8.44147      3.98360      6.42281        -0.003736      0.024357      0.103156
O	      2.15189      4.03357      4.14698        -0.020923      0.148031     -0.098232
O	      4.28119      6.19770      4.25082        -0.140285      0.041182     -0.030081
O	      4.17940      4.30991      6.22109         0.000023      0.057383      0.167313
O	      6.18111      6.19884      6.36511         0.037625     -0.021919     -0.084607
O	      6.38957      4.08628      8.47519        -0.206612      0.007872      0.015841
O	      8.42719      6.13446      8.37415        -0.044633      0.211817      0.034159
O	      2.21516      6.30695      6.32864         0.101213      0.018772     -0.006543
O	      4.11662      8.21524      6.30044        -0.121442     -0.026100     -0.011099
O	      4.28286      6.24079      8.24548         0.058380     -0.188784      0.007310
O	      6.24036      8.20526      8.32881         0.173625     -0.207893     -0.344125
O	      6.26655      6.30419     10.33631         0.005372     -0.460502     -0.441648
O	      8.32946      8.30263     10.67626         0.259600     -0.025072      0.305246
