# total energy = -235.00496103 eV
 
CRYSTAL
PRIMVEC
0.042608 6.423419 6.251278 
6.321765 0.049879 6.243448 
4.221556 4.284248 0.026655 
PRIMCOORD
36 1
Li	     10.39010      4.37765      6.30507         0.018708      0.005918      0.015644
Li	      8.39668      2.36024      6.30512         0.022746      0.015304     -0.036216
Li	      2.12186      0.10071      2.02264        -0.016324      0.034605     -0.008086
Li	      8.42606      4.29601      8.15849        -0.015125     -0.009387     -0.012972
Li	      2.12698      2.13700      4.14970         0.000903     -0.018409      0.018970
Li	      8.45973      6.29771      6.31606         0.022874      0.014021      0.007501
Li	      6.48703      4.29407      6.29185        -0.056392     -0.035357      0.033717
Li	      4.25803      6.43167      6.30239         0.009742      0.002345     -0.010129
Li	      4.29280      4.32031      8.27976         0.078149     -0.084696     -0.003858
Ti	      4.30667      4.28209      4.18909         0.253805     -0.020747      0.012067
Ti	      2.17196      6.48018      4.20649         0.015541      0.209145     -0.080346
Ti	      6.35131      8.55912      6.35626         0.022398     -0.046151     -0.032939
V	      4.09942      2.16803      2.05815        -0.168527     -0.023317      0.035268
Fe	      6.33649      2.20199      4.34118         0.051278      0.062937     -0.211286
Fe	      6.37091      6.31898      8.28350         0.031268      0.017703      0.162028
Co	      6.42387      2.19864      8.19658         0.006793      0.067612     -0.094357
Co	      4.24655      8.55542      4.19310        -0.007398     -0.076355     -0.008396
Cu	      8.38688      4.34186      4.26500         0.010315     -0.050783     -0.164437
O	      2.16445      2.12518      2.07953         0.164332      0.018777     -0.019316
O	      4.20834      4.21466      2.21390        -0.005337     -0.075650      0.086508
O	      4.27098      2.32458      4.14869        -0.026916      0.247084     -0.067966
O	      6.21497      4.24610      4.19722        -0.335452      0.036295     -0.003073
O	      6.31351      2.17059      6.19855        -0.009353     -0.056841      0.238556
O	      8.43088      4.32810      6.13467        -0.016933     -0.000328      0.184126
O	      2.17636      4.37002      4.26792         0.076826      0.033476      0.053010
O	      4.16163      6.32175      4.12416        -0.111172      0.004186      0.000022
O	      4.09441      4.33275      6.13546        -0.114906      0.031133     -0.040560
O	      6.34247      6.60197      6.35108         0.010743      0.173580     -0.172684
O	      6.31586      4.37098      8.37342         0.002781     -0.018585      0.124374
O	      8.40918      6.43667      8.48131         0.042411     -0.016819      0.059704
O	      2.15698      6.27490      6.12669        -0.027082     -0.090328      0.017956
O	      4.37358      8.54628      6.23176         0.075941      0.062657     -0.012089
O	      4.34929      6.57789      8.49531        -0.125382      0.082971     -0.062052
O	      6.30099      8.58165      8.31418         0.013050      0.019376     -0.047385
O	      6.47622      6.54855     10.35172         0.081729     -0.146841      0.031553
O	      8.43801      8.46329     10.44182         0.023967     -0.368530      0.007145
