# total energy = -235.25226195 eV
 
CRYSTAL
PRIMVEC
0.020443 6.307030 6.288563 
6.266580 0.006676 6.302420 
4.180716 4.216705 0.001420 
PRIMCOORD
36 1
Li	      6.22446      0.04995      6.23307        -0.052424      0.060701     -0.050579
Li	      6.26145      4.22581      2.15370         0.061673     -0.031663      0.017309
Li	      6.29666      8.38444     10.44263        -0.026425      0.014494     -0.004235
Li	      2.10002      4.19241      2.08267        -0.013182      0.047315      0.007160
Li	      2.12362      2.13143      4.18390         0.037499      0.010301      0.022937
Li	      8.30155      6.27974      6.30241        -0.017599     -0.053455      0.010983
Li	      2.13530      4.17875      6.28532         0.000205     -0.026009      0.028625
Li	      8.26503      8.35295      8.45760        -0.017833      0.015081     -0.017790
Li	      6.36607      6.40586      8.40452        -0.024762      0.025761     -0.018902
Ti	      4.29480      2.20788      2.17880         0.524134     -0.068366      0.299623
Ti	     10.39024      6.28856      8.40170        -0.398242      0.089336     -0.095306
Ti	      4.20489      6.23792      6.39675         0.051086     -0.252382      0.390352
V	      6.27661      4.25120      6.27986        -0.071201      0.017096      0.056764
Fe	      8.37209      2.15072      6.30806        -0.071693     -0.071612     -0.143747
Fe	      6.38968      4.31935     10.45162        -0.155109     -0.091641     -0.040331
Co	      8.31691      4.22084      4.17430         0.138193     -0.023342      0.112691
Co	      8.34439      6.32679     10.47094        -0.074631      0.107066     -0.031566
Ni	      4.16524      4.19600      4.20705        -0.131811     -0.096296      0.027725
O	      2.07791      2.08201      2.01547         0.003101      0.045884      0.090520
O	      4.18715      4.20280      2.12170         0.017127      0.033407     -0.149231
O	      4.14116      2.12498      4.05779         0.004762     -0.030658     -0.167040
O	      6.23896      4.16241      4.33522         0.510788      0.012670     -0.068143
O	      6.31421      2.14654      6.44992         0.044828     -0.021640      0.066761
O	      8.32110      4.13806      6.28062         0.106514      0.127426     -0.397877
O	      2.07018      4.25252      4.21531        -0.058626      0.000190     -0.049106
O	      4.26362      6.34540      4.16643        -0.108429      0.097924     -0.033539
O	      4.17234      4.32543      6.28460         0.031379      0.268224      0.088341
O	      6.17679      6.23979      6.33778        -0.162555      0.012579      0.014203
O	      6.26261      4.03777      8.40764         0.067319     -0.104766      0.000577
O	      8.50757      6.29610      8.38533         0.343320     -0.077604      0.090843
O	      2.25490      6.40151      6.24477         0.025671     -0.035167     -0.060929
O	      4.17891      8.34501      6.31387         0.065865      0.006829     -0.000072
O	      4.16465      6.44832      8.28369         0.012892     -0.047176     -0.082122
O	      6.13717      8.44416      8.37809        -0.384971      0.048738      0.024176
O	      6.23693      6.24934     10.45080        -0.349216      0.054818      0.066302
O	      8.46674      8.41230     10.54769         0.072351     -0.064066     -0.005377
