# total energy = -236.76588971 eV
 
CRYSTAL
PRIMVEC
-0.014382 6.379728 6.294695 
6.296411 0.016835 6.263743 
4.219493 4.254304 -0.010578 
PRIMCOORD
36 1
Li	      2.14292      6.34902      8.28426         0.002978      0.060195     -0.006241
Li	      4.29201      8.36862      8.28160         0.003959     -0.105333     -0.029247
Li	      4.27016      6.40964     10.40133         0.040952      0.011144     -0.034839
Li	      6.27269      8.40312     10.40144         0.035780     -0.139417      0.012119
Li	      8.40524      4.28529      8.36646         0.046544     -0.054464      0.011782
Li	      2.04676      6.38954      4.29063        -0.053524      0.077623      0.052746
Li	      6.24142      8.61962      6.33366         0.004071      0.009020     -0.013387
Li	      4.08981      6.46297      6.35242         0.015957     -0.023437     -0.023600
Li	      6.23386      6.48619      8.42689        -0.024746     -0.003456     -0.023795
Ti	      0.06303      2.13512      2.13899         0.350854     -0.158970      0.052558
Ti	      4.14145      4.19686      4.13701        -0.254429     -0.089636     -0.158223
Ti	      8.24424      8.64539      8.46130        -0.243430      0.382316      0.080773
V	      6.32872      4.26355      6.27432         0.290787      0.411267     -0.249314
Fe	      8.35505      6.33104      6.27966        -0.064194     -0.033313     -0.053008
Fe	      6.34069      4.43013     10.54640         0.145038     -0.111394     -0.070458
Co	      0.06134      6.34085      6.27988        -0.019384     -0.053247      0.092023
Co	      2.15067      8.40521      6.25279        -0.086728      0.029338      0.054506
Co	      2.10032      2.13381      4.17250        -0.074927      0.030037      0.078454
O	      1.96062      2.15763      2.08502        -0.205109     -0.005347      0.234491
O	      4.17035      4.38071      2.20766         0.032594      0.101386      0.223013
O	      4.22497      2.27729      4.21937        -0.524069      0.053415     -0.076340
O	      6.11545      4.31558      4.26324         0.076838      0.191410      0.193286
O	      6.25439      2.17083      6.34866        -0.011911     -0.111509      0.119273
O	      8.36012      4.30385      6.24047        -0.088397     -0.051885      0.048443
O	      2.15617      4.22245      4.18950         0.041042     -0.361884      0.013614
O	      4.16248      6.31999      4.07681         0.452147     -0.080354      0.032971
O	      4.26804      4.20750      6.25388        -0.004291     -0.016173     -0.006495
O	      6.40787      6.28124      6.24569        -0.113391      0.159621     -0.271346
O	      6.26624      4.16401      8.38305        -0.041252     -0.136129     -0.273849
O	      8.53989      6.51294      8.24104         0.065750      0.069344      0.133424
O	      2.04065      6.43016      6.28838         0.033669      0.058689      0.003062
O	      4.21704      8.49122      6.21191        -0.032229      0.102268      0.071211
O	      4.19547      6.23400      8.36358        -0.030442     -0.388405      0.021047
O	      6.43254      8.49552      8.38327         0.261219      0.052536      0.017271
O	      6.30295      6.32031     10.46220         0.014536      0.120293     -0.094028
O	      8.50294      8.51527     10.35240        -0.042264      0.004455     -0.161896
