# total energy = -228.64778907 eV
 
CRYSTAL
PRIMVEC
0.015022 6.249776 6.292420 
6.282760 0.018979 6.288482 
4.207128 4.182239 -0.005810 
PRIMCOORD
36 1
Li	      4.23216      4.25372      0.10653         0.105981     -0.050454      0.025257
Li	      2.06429      2.06790      0.19947        -0.009521     -0.008484     -0.046563
Li	      2.06053      0.20221      2.05030        -0.046325      0.030043     -0.045254
Li	      3.97314      2.15003      2.08948         0.007555      0.019462     -0.090741
Li	      0.14637      2.05238      2.01627        -0.006031     -0.004363     -0.037718
Li	      2.13857      4.02689      2.05407        -0.005768     -0.036433     -0.068790
Li	      2.05788      2.06772      3.94401        -0.020628     -0.025107     -0.001848
Li	      8.46175      6.24207      6.47157        -0.030968      0.055302      0.027098
Li	      6.42608      6.27973      8.36941        -0.023070     -0.083636     -0.004802
Ti	      4.11397      4.10606      4.00073         0.133171     -0.137144     -0.331916
Ti	      6.22081      4.17579     10.39397        -0.170611     -0.031163      0.165004
Ti	      4.16787      6.30047      6.45915         0.018894      0.152240      0.103158
V	      6.40550      4.16564      6.31232        -0.097630      0.028145      0.133092
Fe	      6.29872      8.30347     10.45098         0.064854     -0.034969      0.333776
Fe	      6.34879      8.29719      6.41529         0.158267     -0.113272      0.283697
Cu	      8.36630      8.26871      8.37174         0.126844      0.133899     -0.084300
Ni	      4.14162      0.08977      4.11358        -0.030510      0.058174      0.026356
Ni	      8.40287      6.26901     10.42705        -0.079751      0.055577      0.078091
O	      2.09964      2.10264      2.06290        -0.015179      0.008108      0.047101
O	      4.21266      4.20576      2.20797        -0.044056      0.004471      0.426530
O	      4.26289      2.19022      4.15552        -0.091427      0.157941     -0.080266
O	      6.23658      4.13186      4.28456        -0.103292      0.017790     -0.118036
O	      6.26317      2.22844      6.16351        -0.007126     -0.047673      0.012661
O	      8.17971      4.29299      6.21012         0.028548     -0.030509      0.081928
O	      2.15474      4.18601      4.20024        -0.055059     -0.173692      0.094427
O	      4.18990      6.33520      4.25437         0.194997      0.058053     -0.082701
O	      4.29780      4.28134      6.10008         0.346739      0.105617     -0.289826
O	      6.16298      6.15841      6.32097        -0.063529     -0.111378      0.009577
O	      6.25671      4.17767      8.42954         0.120827      0.000873      0.095821
O	      8.40027      6.35810      8.44348         0.016525     -0.120980     -0.088714
O	      2.26298      6.20341      6.21679         0.127889      0.260955      0.177562
O	      4.30469      8.23196      6.16315        -0.485259     -0.206747     -0.295380
O	      4.18950      6.19564      8.33447        -0.071981      0.013892     -0.128634
O	      6.37851      8.31832      8.52636        -0.069243     -0.014927     -0.452544
O	      6.27033      6.17457     10.55176         0.021227      0.067583     -0.047981
O	      8.52170      8.41694     10.60953         0.054645      0.002806      0.174877
