# total energy = -228.98450381 eV
 
CRYSTAL
PRIMVEC
0.031942 6.298046 6.267365 
6.267807 0.021856 6.277341 
4.205708 4.232804 -0.012710 
PRIMCOORD
36 1
Li	     10.37439      4.25873      6.35209        -0.029522      0.020034     -0.027183
Li	      2.15988      2.17253      0.12677         0.012318      0.027332     -0.172829
Li	      2.23293      0.18689      2.06854        -0.015470     -0.092329      0.020956
Li	      3.99299      1.95042      2.08302         0.114382     -0.072161     -0.034775
Li	      4.21827      6.35375     10.31198         0.004446      0.024510      0.035740
Li	      2.11379      4.07412      1.98066         0.042664      0.090280     -0.078420
Li	      2.12152      2.07452      4.02434         0.012732     -0.020336      0.089751
Li	      4.26146      4.37073      8.37971        -0.056139     -0.023015      0.025062
Li	      6.12398      6.29952      8.38352        -0.028827      0.081883      0.013527
Ti	      4.19704      4.17355      3.99476         0.230452     -0.293298     -0.026104
Ti	      8.38389      6.36400     10.35872        -0.266266      0.407089     -0.072626
Ti	      6.25815      8.46889      6.46191        -0.125187      0.065263      0.294819
V	      6.32613      8.44046     10.37218         0.015533     -0.119811      0.072750
Fe	      6.40051      4.29431      6.34990        -0.049693     -0.012945     -0.301657
Fe	      6.29011      4.21700     10.38718        -0.118178      0.022141      0.078271
Cu	      0.12546      2.11340      2.05340        -0.180610     -0.089103     -0.017135
Cu	      8.36721      6.31369      6.32088         0.137700     -0.087622      0.067574
Ni	      4.20858      6.30568      6.41171        -0.053693      0.031415      0.017785
O	      2.02973      2.11941      2.05951        -0.130279      0.058012      0.016178
O	      4.18851      4.32935      2.17495         0.020382      0.089359      0.157691
O	      4.30367      2.24754      4.03715        -0.155283      0.373379     -0.105764
O	      6.17210      4.17399      4.23465        -0.242659      0.121528     -0.022690
O	      6.23421      2.22110      5.98719        -0.018928      0.104673     -0.029233
O	      8.30549      4.35720      6.22560         0.072443     -0.247556     -0.008666
O	      2.18307      4.26000      4.29479         0.388672      0.049059      0.016149
O	      4.11916      6.19087      4.38693        -0.115314     -0.023256     -0.073204
O	      4.12544      4.10955      6.23857         0.015735      0.184915     -0.098873
O	      6.32009      6.36082      6.30374        -0.160750      0.124303      0.004066
O	      6.29493      4.15317      8.33046         0.053494     -0.088089     -0.040001
O	      8.54421      6.30824      8.54465         0.186555     -0.044083      0.303642
O	      2.11037      6.12203      6.23956        -0.035419     -0.250238     -0.006610
O	      4.35598      8.39968      6.18849         0.314217      0.063497      0.159356
O	      4.21183      6.30464      8.35169        -0.057745      0.023400      0.192916
O	      6.34455      8.43751      8.39745         0.023627      0.019061     -0.416113
O	      6.40904      6.44331     10.42714         0.298486     -0.148949     -0.018487
O	      8.34905      8.33084     10.48383        -0.103877     -0.368338     -0.015862
