# total energy = -90.71177206 eV
 
CRYSTAL
PRIMVEC
-2.162146 4.435294 -2.161811 
2.100984 4.373853 2.099952 
2.140156 0.031457 -6.401500 
PRIMCOORD
16 1
Li	      0.02557      4.63118     -4.54466         0.151180     -0.068786      0.702331
Li	      2.17015      6.92512     -4.49007        -0.070012     -0.521920      0.523796
Li	      0.01525      4.60160     -0.26751         0.095103     -0.101535      0.423642
Li	     -0.00442      2.32388     -2.25826         0.333159      0.044641     -0.023353
Mn	      0.00095      0.00105     -0.00123         0.330126      5.401372     -4.058466
Mn	     -0.00990      6.92092     -2.31501         0.438855     -2.204042     -0.598501
Ni	      2.18515      4.60601     -2.24850        -0.923046      0.099369     -0.708673
Ni	      2.17804      2.31729     -4.43338        -0.752291      1.128623      0.423454
O	     -0.02977      4.71741     -6.84815         0.005951     -0.393016      3.950455
O	     -0.01431      2.47250     -4.36184        -0.637914     -0.863419      0.106045
O	      2.33215      4.55288     -4.48397         0.051575     -0.790495      0.853229
O	      2.18881      4.40147      0.03980        -0.343784     -0.284783     -1.027406
O	      2.19459      2.36598     -2.15104        -0.262104      1.062767      0.369901
O	     -0.04175      7.08454     -0.15089         0.233336     -3.542525     -0.630955
O	     -0.10424      4.80517     -2.25864         0.592548      0.517906      0.519953
O	      0.08498      2.12301     -0.01942         0.757317      0.515841     -0.825452
