# total energy = -229.95857139 eV
 
CRYSTAL
PRIMVEC
-0.005219 6.320192 6.312221 
6.247748 0.009704 6.297093 
4.176603 4.214689 -0.004659 
PRIMCOORD
36 1
Li	      6.28406      6.33113     12.39345         0.029946     -0.026353     -0.017100
Li	      8.49268     10.36305     10.49657        -0.005018     -0.005124     -0.009199
Li	      6.22528      2.15491      8.38440        -0.003293      0.026725     -0.019081
Li	      6.25903      6.31201      4.22689         0.010351     -0.029793     -0.012238
Li	      6.26758      4.21615      6.26060         0.028286     -0.022451     -0.026341
Li	      6.08366      4.42148     10.49505        -0.020481      0.065171     -0.005556
Li	      8.18746      6.45664     10.50299         0.021244     -0.009502      0.040216
Li	      8.38380      8.42984      8.61949         0.023972     -0.022700      0.049568
Li	      6.26369      6.31351      8.58607         0.044189     -0.001080     -0.025539
Ti	      4.18755      8.34119      8.48653         0.122398     -0.199682     -0.060318
Ti	      4.25625      4.33004      4.18576         0.167341      0.357423      0.018194
Ti	      8.38473      6.23868      6.36086         0.082870     -0.137439      0.288733
V	      8.16234      4.23139      8.43943        -0.237832     -0.012969     -0.002181
Fe	      2.03797      4.24348      6.20024         0.078128      0.087471      0.019224
Fe	      4.22677      6.35873      6.28903         0.000736     -0.083226      0.076877
Ni	      8.28448      8.43488     12.50991        -0.050158      0.066423      0.077307
Ni	      2.06088      0.03250      2.07039        -0.010859      0.037258      0.021762
Ni	      6.32469      8.31983     10.49471        -0.011871      0.097539     -0.017984
O	      2.16334      2.19665      2.05049         0.114703      0.030632      0.090982
O	      4.08294      4.12046      2.19744        -0.065511     -0.048534      0.149978
O	      4.15247      2.16271      4.17172        -0.094097      0.040559     -0.112979
O	      6.13471      4.18159      4.10204        -0.352320      0.046771      0.110260
O	      6.11316      2.12623      6.28064        -0.286682     -0.006316      0.099517
O	      8.32023      4.30600      6.41038        -0.001613      0.218971      0.048664
O	      2.20947      4.21450      4.10880         0.125326     -0.088881     -0.051901
O	      4.21915      6.19590      4.29892         0.065108     -0.297745     -0.048211
O	      4.18495      4.15489      6.18916         0.150513      0.007109     -0.161157
O	      6.32089      6.33990      6.29799         0.009880     -0.232197     -0.100184
O	      6.41704      4.17075      8.44322         0.126336      0.015541      0.005886
O	      8.36965      6.22212      8.26724         0.015364     -0.017429     -0.235165
O	      2.19665      6.35218      6.37428         0.059842      0.055798     -0.045379
O	      4.13323      8.37523      6.45226        -0.085771      0.014892      0.104128
O	      4.14022      6.43089      8.35754         0.105764      0.204622     -0.022336
O	      6.10081      8.49861      8.36493        -0.228634     -0.056389     -0.052913
O	      6.24757      6.34297     10.49675        -0.048290     -0.090922     -0.034688
O	      8.30953      8.44368     10.53568         0.120132      0.015830     -0.140848
