# total energy = -236.49682413 eV
 
CRYSTAL
PRIMVEC
0.067785 6.395400 6.284920 
6.266411 0.061691 6.290382 
4.212295 4.301768 0.006602 
PRIMCOORD
36 1
Li	      6.42608      6.50454     12.52651         0.007626     -0.013411     -0.030700
Li	      6.29392      2.17752      4.22969         0.053301     -0.014265      0.039960
Li	     10.45184      6.52149      8.45458        -0.037183     -0.001286      0.006797
Li	      4.18176      4.42798      4.24815        -0.045636      0.067056     -0.049200
Li	      6.20040      4.29419      6.29398        -0.027296     -0.013252     -0.004073
Li	      4.25718      8.46050      4.20326        -0.014497     -0.019788      0.000532
Li	      2.29224      6.42081      4.26811         0.062071     -0.015699     -0.001502
Li	      4.16536      6.35265      6.18586        -0.019424     -0.038058      0.001010
Li	      4.24690      4.26140      8.36322         0.019549      0.004995      0.011825
Ti	      4.33017      8.63242      8.33360         0.030268      0.251674     -0.281715
Ti	      8.44543     10.60476     10.59711        -0.004332     -0.385538      0.043111
Ti	      6.37005      6.38881      8.43164         0.105927     -0.284151      0.133845
V	      2.13071      4.28179      2.10093         0.061067      0.086286     -0.053396
Fe	      8.34873      8.53529     12.53725         0.054728     -0.025294      0.072105
Fe	      6.17207      6.47011      4.27575         0.098132      0.066741     -0.038766
Fe	      4.33432      2.32957      6.22691        -0.047697     -0.147547      0.090819
Co	      2.14738      6.38672      8.34160        -0.002698      0.020178      0.007637
Cu	      2.16865      4.37400      6.20561        -0.091412      0.074410     -0.002362
O	      2.22485      2.16760      2.15402         0.017158     -0.109427      0.000000
O	      4.16972      4.16933      2.12419         0.030171     -0.282861      0.007314
O	      4.13375      2.06444      4.19971         0.028456     -0.026769     -0.102254
O	      6.44565      4.40609      4.13348         0.093361     -0.061941      0.079415
O	      6.25651      2.20825      6.31130         0.010851      0.004005     -0.017181
O	      8.42850      4.42368      6.25199        -0.013622      0.005998     -0.213122
O	      2.09612      4.17648      4.01816        -0.000167      0.047830     -0.001966
O	      4.30714      6.42292      4.18431        -0.170797      0.010575     -0.033420
O	      4.16008      4.22740      6.28146         0.107185      0.164917      0.001702
O	      6.38038      6.56571      6.33635        -0.007428     -0.075650      0.062370
O	      6.38172      4.48772      8.30915        -0.099453      0.289612     -0.018016
O	      8.30984      6.44619      8.33093        -0.090185      0.053584      0.023269
O	      2.15483      6.35193      6.34679        -0.012435     -0.036746     -0.005522
O	      4.22988      8.55766      6.44861        -0.016720     -0.003271      0.224796
O	      4.32621      6.53610      8.48288         0.077037      0.034302      0.043926
O	      6.22682      8.48686      8.50973        -0.069091     -0.013415      0.155058
O	      6.22204      6.43370     10.34459        -0.066626      0.012552     -0.111364
O	      8.44899      8.74279     10.44940        -0.020188      0.373652     -0.040928
