# total energy = -237.35706577 eV
 
CRYSTAL
PRIMVEC
0.020221 6.383655 6.261145 
6.353571 0.026956 6.255020 
4.233787 4.249611 0.019555 
PRIMCOORD
36 1
Li	     10.42461      4.24456      6.23480        -0.050549      0.018689     -0.037804
Li	      8.53393     10.56169     10.48763         0.016288     -0.037593     -0.039016
Li	      8.48929      4.27020      8.30128         0.003583      0.023824      0.017063
Li	      6.33693      6.43709      4.26612        -0.019662      0.019778     -0.007612
Li	      8.42220      6.31003      6.24966         0.009972     -0.017193     -0.035475
Li	      4.25481      8.54576      4.26688         0.024707      0.023375      0.002901
Li	      6.35631      8.40366      6.28235        -0.014784     -0.050778      0.003724
Li	      4.36098      6.39712      6.25426         0.026785      0.002587     -0.011832
Li	      4.25577      4.29948      8.34075         0.027941     -0.005413      0.006593
Ti	      4.25594      8.41298      8.26989         0.103557     -0.117742     -0.201901
Ti	      6.32648      2.21758      8.28566        -0.179289      0.142166      0.118072
Ti	      4.15956      4.20669      4.29009        -0.092675     -0.058469      0.143463
V	      2.12791      6.40612      4.31753        -0.005908     -0.042282     -0.010625
Fe	      2.13764      6.41206      8.27942         0.053934     -0.123827      0.006390
Fe	      6.46271      4.37461      6.20544        -0.171540     -0.109101      0.033480
Fe	      6.40527      6.36762      8.33857         0.015679     -0.045039      0.007024
Co	      6.39154      8.50668     10.46351        -0.113950      0.044110     -0.057424
Ni	      8.50274      2.22783      6.24320        -0.083306     -0.051768     -0.105173
O	      2.10047      2.15267      2.09339         0.007096      0.086337      0.121091
O	      4.21959      4.30410      2.17507        -0.093215      0.021027      0.002432
O	      4.20332      2.29401      4.07133         0.027534      0.138866     -0.060787
O	      6.22353      4.26171      4.18528        -0.040076     -0.063263      0.086388
O	      6.35920      2.15756      6.35648        -0.026303      0.030654      0.062168
O	      8.38550      4.24686      6.20004         0.187873      0.145330     -0.013509
O	      2.23919      4.37669      4.23935         0.136204      0.025843      0.008159
O	      4.17999      6.30438      4.08781         0.039791     -0.029282     -0.015829
O	      4.33164      4.27386      6.14581        -0.018212     -0.026920     -0.140216
O	      6.38535      6.31099      6.33502         0.018428      0.104918     -0.195237
O	      6.37587      4.12320      8.27824        -0.001470     -0.242904      0.069359
O	      8.63472      6.39790      8.50931         0.198113      0.012180      0.033166
O	      2.15610      6.43524      6.14724         0.104173     -0.078730     -0.109142
O	      4.21536      8.53617      6.40747         0.061265      0.014350      0.246023
O	      4.23909      6.53454      8.41560         0.007421      0.236951     -0.042371
O	      6.20714      8.55393      8.33906        -0.133117     -0.049786      0.004597
O	      6.52989      6.39685     10.36778         0.035105      0.061826      0.204075
O	      8.47034      8.40660     10.45715        -0.061392     -0.002718     -0.092214
