# total energy = -235.79183075 eV
 
CRYSTAL
PRIMVEC
0.001541 6.306842 6.222114 
6.340298 0.004566 6.219154 
4.232298 4.208081 -0.002483 
PRIMCOORD
36 1
Li	      6.48703      6.33244     12.30286        -0.214185      0.006052     -0.040407
Li	      2.11620      6.31078      8.20695         0.009427     -0.030057      0.279487
Li	      8.46524      4.25948      4.21026        -0.028322      0.136237     -0.041909
Li	      6.28813      2.08343      4.22807        -0.126719     -0.002903     -0.099092
Li	      6.37293      6.29324      4.28570         0.098751      0.017612      0.031932
Li	      4.16178      2.07315      6.11874        -0.087750      0.022839     -0.028359
Li	      2.08866      6.29049      4.31669        -0.018852     -0.057646     -0.384985
Li	      2.10577      4.29763      6.16307        -0.021774     -0.189657      0.088627
Li	      4.16540      6.32605      6.18489         0.242114      0.009658      0.054520
Ti	      0.06381      2.02580      2.04638         0.010257      0.122470      0.086973
Ti	      8.43051      4.29847      8.24106         0.267546     -0.267593      0.053628
Ti	      8.25328      8.59671      8.28538        -0.498254     -0.017411     -0.193501
V	      4.21390      8.38987      8.29569         0.082640     -0.011855     -0.051353
Fe	      4.32633      4.19387      4.31987        -0.208448     -0.171694     -0.101990
Fe	      4.24778      8.46854      4.30777         0.189147     -0.156512     -0.288140
Fe	      6.39592      6.30198      8.25714        -0.091889      0.165985      0.087985
Co	      2.12428      8.28634      6.13628         0.021035     -0.678169      0.069598
Co	      6.34320      4.26645      6.10020        -0.006827      0.068997     -0.055814
O	      2.10581      2.19229      2.08637        -0.339230     -0.191851     -0.343515
O	      4.11990      4.24928      2.12738         0.250732      0.001227     -0.092385
O	      4.23734      2.20411      4.01930        -0.071371      0.054647      0.194319
O	      6.23780      4.20523      4.14319         0.154884     -0.033824      0.065632
O	      6.37636      2.14169      6.35996         0.164683     -0.032402     -0.023896
O	      8.45576      4.14996      6.36000         0.168021     -0.239094     -0.062916
O	      2.07800      4.20039      4.01283         0.082217      0.065061      0.040397
O	      4.25161      6.28540      4.01345        -0.065744      0.064329      0.095284
O	      4.21847      4.19453      6.33170        -0.227716      0.084654      0.104700
O	      6.36645      6.25430      6.31643        -0.009621     -0.160244     -0.259111
O	      6.38872      4.07098      8.34318        -0.043582     -0.012218     -0.052465
O	      8.61614      6.26775      8.25380         0.045001      0.001055     -0.001944
O	      2.10673      6.35824      6.22717         0.054583      0.963350     -0.033322
O	      4.22473      8.41685      6.25443        -0.176434     -0.000710      0.244889
O	      4.18331      6.25990      8.30756        -0.142100      0.139628     -0.030258
O	      6.36153      8.43326      8.30146         0.572734      0.226571     -0.027462
O	      6.34271      6.18429     10.27522         0.031415      0.117514      0.253558
O	      8.55806      8.38589     10.16190        -0.066373     -0.014045      0.461297
