# total energy = -234.17167383 eV
 
CRYSTAL
PRIMVEC
0.016800 6.241795 6.370056 
6.211366 0.013948 6.372605 
4.154273 4.176274 -0.004107 
PRIMCOORD
36 1
Li	      2.11503      8.28695      6.36588        -0.066047      0.038022      0.006944
Li	      2.04098      0.04089      2.08713        -0.045179      0.028642      0.059017
Li	      4.17677      8.33894      8.47162        -0.002070      0.022368      0.049282
Li	      6.22518      2.09064      8.46647         0.010027      0.000207     -0.030884
Li	      4.13223      4.18890      4.36947         0.047601     -0.004573      0.023432
Li	      4.19446      2.25833      6.35711        -0.008555     -0.048042     -0.041563
Li	      6.05540      4.10800      6.42738         0.046206     -0.062452     -0.035299
Li	      4.16160      8.30463      4.29842        -0.000720      0.015502     -0.027951
Li	      4.15753      4.16966      8.38801        -0.003815      0.007083      0.103071
Ti	      6.19290      2.21936      4.29241        -0.062228      0.148830      0.128437
Ti	      2.10947      4.10047      2.05666         0.094020     -0.202616     -0.173138
Ti	      6.16675      6.25783      8.36622        -0.158047      0.022851      0.059574
V	      2.18347      6.24754      4.22494        -0.165150      0.211545     -0.107162
Fe	      4.18680     10.35150      6.41490         0.071053      0.121227     -0.181016
Fe	      8.26530      4.14643      4.29985         0.083409      0.093356      0.038767
Fe	      2.08029      2.07543      4.22046         0.020139     -0.047911      0.108428
Cu	      2.13634      4.19757      6.41474        -0.071552     -0.047410      0.003074
Ni	      4.13682      6.25422      6.38224         0.026843      0.111116      0.060548
O	      2.05226      2.17158      2.23362         0.034260      0.115397     -0.186631
O	      4.05131      4.21986      1.98652        -0.113797     -0.026359      0.127617
O	      4.14630      2.08217      4.28442         0.037073      0.130636     -0.002334
O	      6.17484      4.15969      4.24407        -0.175190     -0.102302      0.031159
O	      6.19702      1.99668      6.20151        -0.001724      0.043788     -0.136219
O	      8.36269      4.11175      6.43030        -0.065197      0.005188      0.225573
O	      2.12251      4.13123      4.03558         0.011230      0.029016     -0.184600
O	      4.19031      6.28674      4.28438         0.211004      0.009999     -0.068173
O	      4.06429      4.23915      6.41550         0.036656     -0.076606     -0.004581
O	      6.22476      6.30740      6.41995         0.131176     -0.102961      0.091966
O	      6.33247      4.31044      8.42175         0.029430      0.117612      0.011216
O	      8.22055      6.18561      8.57135        -0.018287     -0.094582      0.032001
O	      2.06528      6.22217      6.26901        -0.048996      0.107398      0.067500
O	      4.29711      8.37800      6.37116        -0.121543     -0.097421     -0.018009
O	      4.28316      6.23635      8.55289         0.176788      0.005024     -0.144043
O	      6.22373      8.20362      8.71266         0.013368     -0.083214      0.126827
O	      6.30482      6.29251     10.58483         0.032383      0.018614     -0.008786
O	      8.19902      8.31177     10.63150         0.015433     -0.406970     -0.004040
