# total energy = -233.68553297 eV
 
CRYSTAL
PRIMVEC
0.015133 6.311586 6.247038 
6.294707 0.010344 6.251932 
4.212062 4.226487 -0.008803 
PRIMCOORD
36 1
Li	      0.06559      6.33207      6.23756         0.044360      0.113804      0.034659
Li	      6.26954      4.22212      2.07336        -0.054364     -0.006292     -0.036112
Li	      4.22941      2.16030      2.08589         0.060983      0.097839     -0.007885
Li	      6.27303      2.09768      4.19559        -0.035259     -0.026477      0.000003
Li	      0.01322      2.09197      2.06872         0.012066     -0.071760     -0.039674
Li	      2.12312      2.08147      4.14517         0.011585     -0.047989     -0.025495
Li	      4.24662      2.09941      6.23356         0.058391     -0.015186      0.032115
Li	      2.06431      6.29860      4.19053        -0.059105     -0.019882      0.000920
Li	      6.28452      8.47803      6.24857         0.009042      0.029106      0.089085
Ti	      2.17943      4.17268      2.16135         0.187320     -0.132994      0.118168
Ti	      4.20857      6.42424      6.16573         0.106540      0.025245     -0.057595
Ti	      8.27451      8.33864      8.41339        -0.540365     -0.079250     -0.076211
V	      4.26309      4.12938      4.15644         0.056413     -0.095049     -0.090643
Fe	      8.33022      2.06737      6.24899         0.025360      0.037571     -0.044316
Fe	      4.24266      0.15785      4.14136        -0.263954      0.022510      0.002396
Fe	      6.31684      4.17318      6.25066        -0.026161      0.030013     -0.145920
Cu	      0.08982      4.23621      4.21076         0.071453      0.152314      0.084431
Cu	      6.27890      6.35990      8.35447         0.128638      0.285978     -0.040074
O	      2.10125      2.28527      2.00713         0.059066      0.180406      0.021100
O	      4.08167      4.24036      2.08733        -0.168530      0.024962     -0.044830
O	      4.18561      2.11841      4.16035        -0.010470      0.048722     -0.014910
O	      6.29372      4.25757      4.22882         0.118891     -0.022078     -0.142799
O	      6.39966      2.17030      6.22110        -0.119877     -0.053948     -0.018419
O	      8.37264      4.19425      6.22264         0.109628      0.032876      0.059599
O	      2.22560      4.20617      4.05096        -0.226392      0.014938     -0.010198
O	      4.23110      6.14348      4.28750        -0.031689      0.222541      0.154260
O	      4.26325      4.26190      6.30941        -0.105783     -0.036286      0.117287
O	      6.16840      6.27594      6.34340        -0.103266     -0.010959     -0.274134
O	      6.34879      4.15009      8.21142        -0.006945     -0.247430      0.233059
O	      8.40136      6.36881      8.33083         0.217675     -0.036644      0.006854
O	      2.22707      6.40549      6.23922         0.061405     -0.148413     -0.023311
O	      4.16437      8.30821      6.30889         0.054068     -0.038178     -0.095680
O	      4.22485      6.18207      8.32354        -0.364350     -0.096515     -0.113977
O	      6.46994      8.51956      8.27672         0.336783      0.114742      0.018820
O	      6.18155      6.37177     10.31932         0.244515     -0.222860      0.348756
O	      8.36222      8.50718     10.32757         0.142327     -0.025378     -0.019329
