# total energy = -238.92978788 eV
 
CRYSTAL
PRIMVEC
0.001612 6.402133 6.462164 
6.291239 0.008056 6.454730 
4.195993 4.265578 0.003289 
PRIMCOORD
36 1
Li	      4.16821      6.41503     10.66873        -0.006139      0.015682     -0.042740
Li	      6.25159      6.45862      4.55118         0.010414     -0.030423      0.016223
Li	      6.20200      4.49362      6.49450         0.030613     -0.044642      0.031504
Li	      0.10551      4.17117      4.25640         0.022551     -0.040816     -0.004639
Li	      2.13075      6.35053      4.26279        -0.012235      0.024330     -0.001939
Li	      6.37463      8.32405      6.47417         0.018270      0.048961      0.094840
Li	      4.42625      6.30506      6.53469         0.016261      0.022886      0.080962
Li	      4.26550      4.37091      8.42733         0.004521      0.099559     -0.058074
Li	      6.22768      6.34586      8.42640        -0.006220     -0.020895      0.051443
Ti	      6.30249      6.41147     12.77313         0.069448      0.030013     -0.317942
Ti	      2.16272      8.51303      6.38635         0.133678     -0.030551     -0.190721
Ti	      6.25899      8.61918     10.61111        -0.088474      0.052312     -0.173254
V	      8.36457      4.30772      8.66600        -0.238598     -0.058014     -0.094428
Fe	      2.16599      6.37309      8.63882         0.038217      0.079857     -0.054682
Fe	      4.20520      8.42875      8.65538        -0.003923      0.150975      0.009415
Fe	     10.41018      6.53637      8.73311         0.057458     -0.190516     -0.109014
Fe	      4.13122      4.35718      4.53442         0.118667     -0.031373     -0.050044
Co	      8.30844      6.47620      6.49628        -0.084155      0.050112     -0.059488
O	      1.99175      2.19592      1.96966        -0.020551      0.053891     -0.146880
O	      4.21758      4.23478      2.05538        -0.053792      0.019128     -0.023941
O	      4.29733      2.19316      4.38244         0.266823      0.041019     -0.076387
O	      6.20695      4.12513      4.33726        -0.011353     -0.227484      0.036650
O	      6.28806      2.01047      6.45949         0.041327     -0.086669      0.039097
O	      8.48181      4.12217      6.54719         0.147361     -0.120410      0.044687
O	      2.18740      4.24716      4.16830        -0.064544     -0.064695     -0.005698
O	      4.20755      6.32103      4.20975         0.012660      0.017049      0.039913
O	      4.17167      4.33144      6.41052        -0.000778     -0.102108      0.066034
O	      6.39472      6.41057      6.47546        -0.019543     -0.015731      0.029740
O	      6.30924      4.17599      8.64649         0.085571      0.272946      0.028286
O	      8.46479      6.29676      8.55368         0.042249      0.011705     -0.025361
O	      1.95058      6.55259      6.46062        -0.217132      0.159416     -0.085924
O	      4.09431      8.66539      6.39836        -0.251847      0.108294     -0.033368
O	      4.14580      6.47354      8.62036         0.042444     -0.162201     -0.017378
O	      6.34444      8.48933      8.76150         0.028391     -0.022152      0.384024
O	      6.26166      6.54968     10.93100         0.014863      0.023222      0.379691
O	      8.22848      8.58449     10.96989        -0.122506     -0.032680      0.239390
