# total energy = -237.92064898 eV
 
CRYSTAL
PRIMVEC
0.004265 6.268932 6.204876 
6.445086 0.006853 6.202532 
4.325053 4.206473 -0.024240 
PRIMCOORD
36 1
Li	      4.33232      4.21527      0.05407         0.047522      0.029791     -0.005582
Li	      2.16364      2.10338      0.05918         0.026682      0.005226      0.018880
Li	      4.29119      8.44464      8.16195         0.006266      0.046444     -0.054389
Li	      6.45214      2.13756      4.13843        -0.010861      0.021844      0.008651
Li	      2.28322      4.10960      1.99036         0.119038      0.000883     -0.015101
Li	      4.33436      4.19034      4.09642         0.051070      0.011087     -0.016266
Li	      6.47228      4.16186      6.17240        -0.001402     -0.008782      0.010093
Li	      2.16512      4.21777      6.22431         0.022896      0.024650     -0.013754
Li	      4.24481      6.28296      6.23210        -0.061247     -0.025994      0.010793
Ti	      4.35791      8.40793      4.28139         0.025835      0.021605      0.377323
Ti	      6.48194      6.29245      4.11852        -0.022761      0.036632     -0.019423
Ti	      4.41441      2.08127      6.27301         0.236605     -0.034635      0.086579
V	      4.27463      4.17053      8.22346        -0.012054     -0.013163     -0.002842
Fe	      2.06745      6.26952      8.15028         0.123540     -0.000252      0.000624
Fe	      8.61146      4.22245      4.14134         0.005902     -0.047826      0.000809
Fe	      2.15029      6.23475      4.22498         0.002438     -0.016703     -0.133995
Fe	      6.36880      6.32139      8.16328         0.014303     -0.007810     -0.028865
Cu	      0.07505      2.09296      2.01546         0.017560     -0.042449     -0.104657
O	      2.28639      2.05855      2.18533         0.139091      0.070433      0.103633
O	      4.45891      4.29882      2.06012        -0.135718     -0.134495      0.042637
O	      4.20422      2.07219      4.24000        -0.027057      0.037050      0.027264
O	      6.55236      4.31629      4.06087        -0.016615      0.081453      0.051441
O	      6.29151      2.11520      6.19823        -0.277881     -0.006785     -0.089704
O	      8.59075      4.31987      6.11644         0.044374      0.082007      0.103485
O	      2.01330      4.09183      4.08852        -0.133680     -0.163982      0.011239
O	      4.43796      6.37322      4.08785         0.077122      0.071347      0.145973
O	      4.29155      4.05684      6.25405        -0.011591     -0.094877     -0.061097
O	      6.55457      6.29436      6.05413         0.014935     -0.004154     -0.225716
O	      6.28907      4.13520      8.31481        -0.058125      0.090889      0.031594
O	      8.49990      6.27444      8.23430        -0.116364     -0.003215     -0.096047
O	      2.17971      6.29287      6.20640         0.024551     -0.005092      0.076385
O	      4.31536      8.37525      6.07816         0.030459      0.011515     -0.398314
O	      4.24442      6.24538      8.33712        -0.099124      0.006236     -0.050405
O	      6.58486      8.41671      8.28388        -0.021650      0.038353      0.024410
O	      6.36915      6.16579     10.30606        -0.059313     -0.115565      0.140265
O	      8.73221      8.42844     10.26943         0.035254      0.038332      0.044078
