# total energy = -237.08613752 eV
 
CRYSTAL
PRIMVEC
0.021254 6.188615 6.367080 
6.338173 0.005572 6.383282 
4.235420 4.146605 -0.006326 
PRIMCOORD
36 1
Li	      8.43818      2.13428      6.37397        -0.005225      0.007130      0.012198
Li	      6.32765      2.09999      4.32907        -0.026287     -0.024703      0.067797
Li	      8.34068      4.17416      8.44902        -0.015295      0.012432     -0.060422
Li	      4.24480      2.15969      6.40036         0.018391      0.003452     -0.035030
Li	      6.28214      4.11583      6.46794        -0.031502      0.006586     -0.004851
Li	      6.34826      4.14402     10.54911        -0.018132      0.042226     -0.064230
Li	      2.22706      4.06981      6.41074         0.041771     -0.010229      0.050975
Li	      4.31068      4.11115      8.36107         0.024639     -0.002008     -0.083626
Li	      6.38368      6.08817      8.41639        -0.004675     -0.046652     -0.057358
Ti	      8.38046      6.30920     10.53038        -0.146583      0.190127     -0.283927
Ti	      6.41086     10.22264      8.42597         0.052805     -0.422865     -0.008238
Ti	      2.10932      2.19506      4.37057         0.096073      0.112766      0.327339
V	      4.21910      4.12815      0.00535        -0.086707     -0.053725     -0.005166
Fe	      4.24367      8.26709      8.46125         0.009500     -0.003207      0.009782
Fe	      8.47089     10.24101     10.66690         0.134021     -0.027800      0.009151
Fe	      6.35666      2.23853      8.40288        -0.039552     -0.167833      0.019914
Fe	      4.24636      6.16660      6.38827         0.048365      0.178117      0.038904
Ni	      4.26224      4.12099      4.32246         0.012347     -0.024188     -0.028091
O	      2.04189      1.99886      2.25002        -0.024341     -0.068483      0.074624
O	      4.34938      4.21962      2.14104         0.078573      0.090582      0.010363
O	      4.08199      2.02379      4.18856        -0.085680     -0.072219      0.095740
O	      6.38808      4.21671      4.13742         0.037920      0.025868     -0.089394
O	      6.32611      1.97402      6.46345         0.007272      0.059140     -0.106570
O	      8.57716      4.11954      6.20633        -0.035187      0.031507      0.136255
O	      2.15559      4.11646      4.25065        -0.083830     -0.075948      0.019969
O	      4.24000      6.20158      4.19687         0.044774      0.113417     -0.101520
O	      4.25009      4.19374      6.31478        -0.017890     -0.196973      0.098041
O	      6.37709      6.20938      6.20433         0.108002      0.038269     -0.388543
O	      6.37187      4.09273      8.47117        -0.035250      0.169648      0.044599
O	      8.51998      6.19445      8.69336        -0.051198      0.027917      0.314659
O	      2.06771      6.20094      6.41013        -0.044851     -0.017582      0.120992
O	      4.24650      8.27268      6.44353        -0.009773      0.057877     -0.097244
O	      4.15521      6.14777      8.63257        -0.168621     -0.075350      0.007609
O	      6.37088      8.38974      8.51785         0.102641      0.354975     -0.013985
O	      6.44202      6.18857     10.65844         0.114588     -0.006672     -0.036339
O	      8.46622      8.17853     10.65653        -0.001105     -0.225600      0.005626
