# total energy = -241.46998878 eV
 
CRYSTAL
PRIMVEC
-0.012128 6.364252 6.342566 
6.228321 -0.009630 6.340391 
4.155186 4.244337 -0.009444 
PRIMCOORD
36 1
Li	      8.30539      8.46160     12.64178        -0.023321     -0.056427     -0.008477
Li	      4.14541      2.09384      2.13204        -0.046379     -0.045470      0.029696
Li	      4.18927      6.33249     10.53101         0.021085      0.020315     -0.047530
Li	      2.11161      4.30175      2.17031         0.056517      0.051659      0.028952
Li	      4.06426      4.25147      4.20799        -0.024227      0.012917      0.031384
Li	      8.28911      6.33811     10.47347         0.005753     -0.011732     -0.070319
Li	      2.06945      4.25487      6.32745         0.019342      0.017183      0.011159
Li	      8.25302      8.44014      8.49555        -0.034450     -0.005577     -0.049036
Li	      6.26660      6.44833      8.50166         0.025196      0.098375     -0.020955
Ti	      4.17671     10.47159      6.33678         0.178203     -0.259282      0.073725
Ti	      6.26740     10.48753      8.54617         0.230766     -0.102856     -0.045358
Ti	      6.22322      4.22663      6.47131        -0.112646      0.068219      0.210486
V	      8.31245      6.35232      6.36710         0.005652      0.129577     -0.048083
Fe	      6.32013      8.47058     10.49890        -0.114746     -0.063906      0.048223
Fe	      4.10901      6.38241      2.16621         0.065780     -0.104540     -0.064658
Fe	      2.14098      2.21851      4.16562         0.004455     -0.178109      0.054877
Fe	      6.14754      4.23373     10.47776         0.018786      0.089787      0.092608
Fe	      4.10451      6.36751      6.35435        -0.028454     -0.008193      0.000283
O	      2.00290      1.99026      2.21186         0.140886     -0.057555     -0.055531
O	      4.21164      4.22007      1.97729         0.002045     -0.118504     -0.140577
O	      4.13929      2.13839      4.33298         0.004676     -0.021896      0.023478
O	      6.23403      4.29796      4.18296        -0.002424      0.027559     -0.039046
O	      6.24934      2.18537      6.32079         0.055278      0.057417     -0.011329
O	      8.29546      4.30642      6.35087         0.027833     -0.042954     -0.013446
O	      1.96265      4.15538      4.20701         0.023954      0.170856      0.025790
O	      4.19212      6.42497      4.31090        -0.029609      0.032034     -0.010362
O	      4.29974      4.15554      6.31040         0.174709     -0.007373      0.026075
O	      6.25432      6.19977      6.26616        -0.007382     -0.110643      0.002199
O	      6.23546      4.30168      8.35587         0.025067      0.088611     -0.172371
O	      8.35009      6.36984      8.33480        -0.213951      0.001296     -0.021209
O	      1.93362      6.38069      6.47229        -0.283543     -0.045391      0.010398
O	      4.10206      8.61242      6.28028         0.010990      0.306652     -0.038752
O	      3.99262      6.39751      8.36743        -0.235263     -0.052963      0.154676
O	      6.19302      8.59663      8.41263        -0.015540      0.202533     -0.067041
O	      6.22993      6.30279     10.72206        -0.010223     -0.093900      0.094854
O	      8.36382      8.46284     10.52163         0.085188      0.012278      0.005217
