# total energy = -251.18971612 eV
 
CRYSTAL
PRIMVEC
-0.041940 6.370198 6.329743 
6.295130 -0.010753 6.297527 
4.194249 4.223123 -0.004599 
PRIMCOORD
36 1
Li	      2.07680      6.30476      8.35817         0.042056     -0.063795     -0.038900
Li	     10.39328      6.43375      8.44307        -0.018820      0.007064     -0.033336
Li	      8.15079      6.43629      6.36898         0.066646     -0.003878     -0.009186
Li	      6.20326      4.46024      6.40514         0.001718     -0.066232     -0.006018
Li	      4.18263      8.37621      4.19142        -0.032072     -0.013496      0.024598
Li	      2.12822      6.32735      4.18436        -0.037770      0.026107      0.020880
Li	      6.29429      8.27357      6.35281        -0.026116      0.081904     -0.009634
Li	      4.34925      6.30815      6.32598        -0.086123      0.023940     -0.007307
Li	      6.28315      6.34230      8.21356        -0.017155      0.014982      0.088221
Ti	      2.04969      8.34439      6.38205        -0.049323     -0.212312     -0.276990
Ti	      8.27839     10.56786     10.44909         0.063516     -0.248707     -0.159085
Ti	      6.31158      8.50377     10.44824         0.123109      0.020266     -0.037548
Ti	      8.23924      4.37445      8.43878        -0.320723      0.429878     -0.020191
Ti	      4.21557      4.38097      4.32320         0.016901     -0.073944      0.416233
Cr	     10.47963      4.22017      6.30852         0.047808      0.025798     -0.120622
Cr	      4.16069      8.47661      8.42588         0.146783     -0.052693     -0.012131
Co	      6.24127      6.30202      4.28592        -0.065399      0.195795      0.243104
Cu	      4.25797      4.13801      8.22002         0.009589     -0.030134     -0.083556
O	      2.17231      2.18090      1.99658        -0.029274      0.038832      0.136406
O	      4.13945      4.12694      2.07956         0.000109      0.036653      0.035812
O	      4.27670      2.10802      4.14836        -0.134933      0.030002     -0.014830
O	      6.27339      4.16675      4.23764        -0.055230      0.202332      0.002163
O	      6.40674      2.02213      6.21881         0.072073     -0.024454      0.062213
O	      8.44429      4.14138      6.30460        -0.006771      0.028722      0.088751
O	      2.21715      4.22459      4.06008        -0.000362     -0.055186     -0.093404
O	      4.15870      6.24139      4.17808         0.084595     -0.183872     -0.044562
O	      4.16429      4.23407      6.13989        -0.017132      0.026746     -0.294358
O	      6.25083      6.36797      6.31792         0.010683     -0.024921     -0.258771
O	      6.41292      4.20106      8.44002         0.227891      0.046221     -0.008618
O	      8.39381      6.20312      8.38561        -0.047701     -0.341075      0.031872
O	      1.96990      6.47878      6.34143        -0.031110      0.161941      0.033041
O	      4.06901      8.56839      6.41167         0.015310     -0.019550      0.019035
O	      4.11404      6.45857      8.58299         0.025601      0.032789      0.072546
O	      6.18065      8.48214      8.55091        -0.009142     -0.032670      0.034222
O	      6.15267      6.45147     10.64893         0.028522     -0.015870      0.031455
O	      8.36309      8.55589     10.68781         0.002246      0.032815      0.188492
