# total energy = -251.32466136 eV
 
CRYSTAL
PRIMVEC
0.013210 6.295162 6.220925 
6.316110 0.010108 6.224079 
4.210548 4.198714 0.007003 
PRIMCOORD
36 1
Li	      0.08946      6.29387      6.20983         0.004726      0.029519     -0.030284
Li	      6.26300     10.32134      8.24492         0.009716     -0.044741     -0.005126
Li	      4.31813      8.47183      8.20944         0.009991     -0.001780     -0.013601
Li	      6.39134      8.35609     10.37764        -0.002388     -0.009897      0.013446
Li	      4.32634      2.10744      6.28294         0.025072     -0.011856      0.033815
Li	      6.30728      4.25974     10.38469         0.014443      0.024280     -0.013607
Li	      8.34778      6.34222     10.40412        -0.037253     -0.010572     -0.006807
Li	      2.04528      4.31208      6.23711        -0.020491      0.010937     -0.017012
Li	      8.39724      8.33837      8.36481         0.001179     -0.009604      0.002791
Ti	      4.23173      6.31414     10.28968         0.239818     -0.051273     -0.296322
Ti	      2.18753      2.11976      4.06620        -0.019992      0.066426      0.025515
Ti	      4.14191      4.09416      4.10026        -0.003483     -0.112680     -0.098811
Ti	      4.15977      6.35821      6.26079         0.148730      0.179880      0.146063
Ti	      6.37350      6.43397      8.34900        -0.203367      0.280653      0.076381
Cr	      2.12420      8.37795      6.22606        -0.042188      0.024360     -0.015591
Cr	      6.31353      4.17418      6.22857        -0.084296     -0.053841      0.190795
Co	     10.43839      6.32745      8.34408        -0.028811      0.112677      0.019284
Ni	      8.41366      4.25354      8.30738        -0.007715     -0.023047     -0.043332
O	      2.09935      2.12922      2.11068        -0.087987     -0.018985      0.170538
O	      4.18320      4.19255      2.17051         0.068234      0.046343      0.307960
O	      4.23408      2.07992      4.17834        -0.029417      0.013816     -0.006846
O	      6.29307      4.20945      4.17885         0.038085      0.091078      0.070124
O	      6.40672      2.18314      6.27010         0.030187      0.007174     -0.010357
O	      8.35119      4.14575      6.17996        -0.047402     -0.030082     -0.160072
O	      2.14363      4.15076      4.18269         0.102330     -0.132773      0.035594
O	      4.27015      6.22719      4.22808        -0.009907     -0.152449      0.007879
O	      4.29415      4.27514      6.14276         0.027714      0.116457     -0.182795
O	      6.29187      6.22589      6.17047         0.047364     -0.071908     -0.157307
O	      6.34298      4.28458      8.22144        -0.086629     -0.065433     -0.113594
O	      8.34375      6.28861      8.31099         0.032041      0.124108      0.010423
O	      2.20751      6.36280      6.23377         0.072808      0.038599      0.009038
O	      4.15868      8.27864      6.23515        -0.061764     -0.273516      0.012386
O	      4.24450      6.27167      8.29781        -0.092294     -0.029746      0.059826
O	      6.32884      8.26687      8.25161         0.016469     -0.285465     -0.010138
O	      6.25930      6.30517     10.30151        -0.022270     -0.004092     -0.065407
O	      8.43452      8.53551     10.46021        -0.001253      0.227431      0.055150
