# total energy = -248.77857907 eV
 
CRYSTAL
PRIMVEC
0.004337 6.233662 6.437078 
6.345021 -0.034940 6.478567 
4.197812 4.150584 0.008538 
PRIMCOORD
36 1
Li	      6.25484      0.04713      6.44498        -0.037047      0.035417      0.005408
Li	      4.30238      0.07040      4.35134         0.045043     -0.015806      0.001508
Li	      6.25296      2.01270      4.42779        -0.009125     -0.005219      0.033021
Li	      6.27205      2.12288      8.56778         0.000649     -0.021766      0.005265
Li	      8.34139      4.15949      8.54863        -0.013968     -0.023653      0.009068
Li	      8.33221      6.12958      6.53471         0.095645     -0.038853      0.102094
Li	      6.37530      4.26091      6.58356        -0.016304     -0.079523      0.096834
Li	      4.37680      6.20329      6.42678        -0.035640     -0.031787      0.005523
Li	      6.35814      6.10997      8.48499        -0.020816      0.019406      0.022539
Ti	      8.25476      2.21327      6.49709        -0.300383      0.370420      0.036153
Ti	      2.10691      6.20225      8.47139        -0.048344      0.061078     -0.012284
Ti	      4.28276      8.30412      8.52415        -0.051431      0.027699      0.100260
Ti	      4.34600      4.15761      4.36474         0.197347     -0.026533      0.079903
Ti	      8.35238      6.18565     10.60696        -0.121152      0.015540     -0.240342
Cr	      4.23032      8.26175      4.32513        -0.008985     -0.006536     -0.062977
Cr	      4.24975      4.18788      8.55238         0.016203      0.005319      0.000150
Cu	      6.48117      6.00355      4.58617         0.133670     -0.258526      0.061634
Ni	      6.33801      8.20079      6.43920        -0.007141      0.144102     -0.014543
O	      2.21099      2.01986      1.95045        -0.012935     -0.014390     -0.193704
O	      4.25678      4.11209      2.26919         0.052599     -0.060541     -0.047622
O	      4.26967      2.18013      4.08424        -0.003327      0.010311     -0.068586
O	      6.22230      4.06030      4.10814        -0.136883      0.036351     -0.039233
O	      6.44359      2.07323      6.48427         0.323755      0.017943     -0.006455
O	      8.42876      4.04310      6.46795        -0.043865     -0.281065     -0.000808
O	      2.08483      4.27346      4.31203        -0.022767      0.135444     -0.023262
O	      4.03011      6.19261      4.30046        -0.118104      0.047796      0.043132
O	      4.21204      4.10830      6.21644         0.083830     -0.025789     -0.176851
O	      6.33390      6.23039      6.54467        -0.017128     -0.109603     -0.030209
O	      6.26667      4.12145      8.83532         0.029407     -0.001393      0.008166
O	      8.41375      6.25538      8.76764        -0.015305     -0.067693      0.272972
O	      2.09108      6.23991      6.53976        -0.021026      0.085737      0.040256
O	      4.20918      8.29755      6.50536        -0.050034     -0.004787     -0.033485
O	      4.12042      6.28113      8.66359        -0.005182      0.072016     -0.062178
O	      6.32745      8.31980      8.55048        -0.018590      0.038420     -0.037615
O	      6.46098      6.11121     10.83260         0.153712      0.004767      0.028867
O	      8.54521      8.15555     10.98075         0.003620     -0.054304      0.097400
