# total energy = -249.76049423 eV
 
CRYSTAL
PRIMVEC
-0.012723 6.360024 6.203451 
6.383402 0.003016 6.187341 
4.253560 4.227465 0.004134 
PRIMCOORD
36 1
Li	     10.61808     10.58257     12.38828        -0.023207     -0.013262     -0.042595
Li	      4.32562      8.55921      8.26229        -0.049212     -0.017492     -0.010168
Li	      4.24620      0.10773      4.14510         0.039074     -0.034395     -0.024172
Li	      4.25802      4.17891      4.11577        -0.049065      0.042360      0.064957
Li	      4.37411      2.09788      6.11606         0.050469     -0.013869      0.034566
Li	      6.35927      4.21293      6.12986         0.010070      0.016953      0.052732
Li	      0.09374      4.27305      4.19162        -0.050545      0.020172     -0.015688
Li	      2.06891      6.18691      4.21135        -0.008531     -0.042586     -0.003783
Li	      2.08896      4.25967      6.11109         0.017196     -0.031783     -0.016426
Ti	      8.45828      8.54823     12.19923        -0.052396      0.158254     -0.171194
Ti	      2.28710      2.07843      4.20614         0.322656     -0.038042      0.102824
Ti	      4.16223      6.36993      6.12988        -0.139595      0.076198      0.026471
Ti	      8.44621      8.45939      8.25702         0.261468      0.095242     -0.141937
Ti	      6.42676      6.37886      8.39431        -0.132352     -0.382948      0.388690
Cr	      4.24746      6.32904      2.12110        -0.135284      0.098623      0.025024
Cr	      2.12921      4.23651      2.08549        -0.077316      0.148327     -0.082216
Cu	      6.23466      4.06577      2.11108        -0.054769     -0.060425     -0.038951
Cu	      6.26213      2.21618      4.22656         0.007199     -0.026453      0.115566
O	      2.00051      2.26866      2.10788         0.067407     -0.046815      0.018942
O	      4.09626      4.36118      2.08914         0.096498     -0.048541     -0.029211
O	      4.13912      2.12570      4.14407        -0.330611      0.010024     -0.033946
O	      6.38643      4.42685      4.12433        -0.019669      0.183983     -0.065017
O	      6.52570      2.09697      6.32426         0.104879     -0.037424     -0.069910
O	      8.53355      4.07517      6.22643         0.007632     -0.169946      0.023998
O	      2.09392      4.12080      4.07390         0.044861     -0.121116      0.043965
O	      4.28476      6.34771      4.20746         0.087922     -0.029193      0.068669
O	      4.24208      4.36354      6.31826         0.015317      0.066116      0.184837
O	      6.26468      6.38117      6.15159        -0.024047     -0.032881     -0.121873
O	      6.37156      4.23988      8.24520         0.019340     -0.030165      0.038675
O	      8.53306      6.35822      8.21312        -0.083820      0.117645      0.075943
O	      2.22719      6.45674      6.19230         0.053962     -0.015969      0.071933
O	      4.06583      8.33748      6.25323        -0.034874     -0.074576     -0.034163
O	      4.45054      6.26112      8.17873        -0.028831      0.200867     -0.022426
O	      6.45539      8.33914      8.14396         0.073030     -0.036746     -0.010489
O	      6.43500      6.30546     10.21724        -0.005606      0.092206     -0.484672
O	      8.53363      8.50535     10.30595         0.020749     -0.022340      0.081047
