# total energy = -252.62734214 eV
 
CRYSTAL
PRIMVEC
0.008876 6.319333 6.259851 
6.316887 -0.005577 6.274439 
4.218498 4.229877 -0.011183 
PRIMCOORD
36 1
Li	      8.39480      2.23944      6.35530         0.012771      0.034484      0.027592
Li	      4.20210      2.14978      2.15594        -0.017953     -0.022572      0.007206
Li	      6.21086      2.19031      4.18593         0.002711      0.071030      0.013563
Li	      6.33479      2.11122      8.34044        -0.028698     -0.034000     -0.055407
Li	      2.15402      4.08011      2.05018         0.070995     -0.028501     -0.076126
Li	      4.22760      4.15412      4.14802         0.120958     -0.045949     -0.046018
Li	      6.35809      4.22187      6.22289         0.029866     -0.071006     -0.004495
Li	      6.35254      8.34743      6.28192        -0.017460     -0.034191      0.018620
Li	      6.33090      6.33283      8.30939        -0.017128     -0.001499     -0.001390
Ti	      0.12075      6.36511      6.31253        -0.159205      0.208283     -0.073522
Ti	      8.33591      6.32703     10.52364        -0.042487     -0.054243      0.064971
Ti	      2.01119      0.11844      2.09145        -0.073032      0.244425      0.188173
Ti	      0.06240      4.11853      4.11114         0.190205     -0.100822     -0.089656
Ti	      4.15106      4.20320      8.23018        -0.160810     -0.108741      0.114198
Cr	      8.38894      4.22667      4.20165        -0.090187     -0.104997     -0.135129
Cr	      8.40229      6.28585      6.27142         0.173040     -0.013579      0.083683
Fe	      4.41382      6.34590      6.25210        -0.178711      0.115905      0.150217
Cu	      2.11938      2.21419      4.12987         0.018232      0.148790     -0.079570
O	      2.11262      1.99234      2.02077         0.013017     -0.308248      0.099059
O	      4.26222      4.16881      2.08424         0.326445      0.035502     -0.232415
O	      4.25922      1.96887      4.30504        -0.015278     -0.046028     -0.129837
O	      6.39984      4.13853      4.06539         0.070130     -0.030123      0.016289
O	      6.24269      1.96098      6.29354        -0.037074     -0.425700     -0.056169
O	      8.49002      4.26718      6.21451        -0.018654      0.063641      0.076289
O	      2.00194      4.39213      4.13486        -0.000796      0.361339     -0.009706
O	      4.03725      6.42624      4.14274        -0.196853     -0.019899      0.004553
O	      4.26334      4.12057      6.34084        -0.032343      0.042977     -0.018013
O	      6.38985      6.32516      6.32149         0.033341     -0.011025     -0.100383
O	      6.20727      4.21962      8.47450        -0.070708     -0.041842      0.254564
O	      8.37499      6.47870      8.39007         0.025664      0.159595      0.006371
O	      2.19172      6.35713      6.25991        -0.153949     -0.088351      0.039753
O	      4.24387      8.55449      6.10620         0.076649      0.031739     -0.022565
O	      4.18868      6.23106      8.42884        -0.042157     -0.019533      0.033993
O	      6.48106      8.56463      8.30102         0.086829      0.031196     -0.018696
O	      6.26103      6.20642     10.48360         0.020741      0.029756     -0.112343
O	      8.47216      8.39704     10.37147         0.081891      0.032187      0.062349
