# total energy = -255.26334011 eV
 
CRYSTAL
PRIMVEC
0.017131 6.302812 6.346999 
6.269967 0.009118 6.355001 
4.167057 4.194410 0.018863 
PRIMCOORD
36 1
Li	      8.27778      2.10054      6.40786         0.048256      0.009908      0.055999
Li	      6.23456      4.22938      2.21186         0.026439     -0.004458      0.025430
Li	      4.18546      2.08222      2.26155        -0.007657     -0.011989      0.017185
Li	      8.27218      4.28778      4.28715         0.005267      0.018752      0.021127
Li	      4.25319      4.09408      4.30129         0.018597      0.008256      0.045591
Li	      4.18346      2.11320      6.22722         0.009951     -0.017687      0.004871
Li	      6.27936      4.18739      6.24669        -0.002003      0.002864     -0.006437
Li	      2.12015      6.27017      4.23908        -0.006003     -0.045797     -0.005283
Li	      2.16916      4.19860      6.33063        -0.005680      0.006404     -0.032717
Ti	      0.11649      6.21624      6.27760         0.077456     -0.126875      0.002817
Ti	      2.18532      4.11299      2.05724         0.237156     -0.303063     -0.115121
Ti	      4.14043      8.42553      4.37389         0.025518      0.031382      0.176973
Ti	      4.14790      6.38212      6.28176        -0.046104      0.063758     -0.008841
Ti	      4.16689      4.23214      8.38106        -0.182577      0.169728     -0.237696
Cr	      6.24210      2.17723      4.30180        -0.102131      0.088749     -0.006560
Cr	      6.26716      6.33852      8.45263        -0.150838      0.092916      0.013208
Fe	      6.24910      2.12712      8.43287         0.055470     -0.066825      0.009144
Fe	      6.34063      6.17363      4.29756         0.037868     -0.019073     -0.004110
O	      2.09388      2.22567      2.13706         0.032249      0.306035     -0.124704
O	      4.08885      4.19124      2.04987        -0.243675     -0.042965     -0.054448
O	      4.27820      2.11182      4.26027         0.305065      0.008764     -0.033564
O	      6.28015      4.15844      4.27071        -0.017717     -0.310841     -0.020126
O	      6.30051      1.99767      6.32728        -0.001039     -0.026316     -0.132550
O	      8.46899      4.17362      6.50200         0.026975      0.021302      0.215120
O	      1.93979      4.17202      4.11109        -0.115091      0.105022     -0.101085
O	      4.11807      6.34978      4.24373        -0.070491      0.009209      0.032153
O	      4.15682      4.29815      6.46743         0.037972      0.013474      0.249239
O	      6.11372      6.34147      6.40566        -0.043739      0.008816      0.197697
O	      6.26332      4.29310      8.50420         0.018390      0.053666     -0.003789
O	      8.28029      6.32006      8.45366        -0.045786     -0.010277      0.024521
O	      2.07991      6.27468      6.34489        -0.038728      0.024319      0.008054
O	      4.17882      8.38507      6.40186         0.000909     -0.030414     -0.080715
O	      4.22426      6.22071      8.37787         0.093726     -0.073686     -0.061833
O	      6.37814      8.35352      8.59121         0.065337     -0.010624      0.023921
O	      6.28127      6.35199     10.60855         0.027136      0.077946     -0.060651
O	      8.43073      8.43428     10.49002        -0.070479     -0.020379     -0.032820
