# total energy = -255.96067591 eV
 
CRYSTAL
PRIMVEC
-0.023905 6.314632 6.158151 
6.314851 -0.052060 6.185482 
4.188071 4.206494 -0.012595 
PRIMCOORD
36 1
Li	     10.39081     10.39002     12.22435        -0.018776     -0.020873      0.038161
Li	      8.38099      8.45497     12.22547         0.026121     -0.026895      0.038573
Li	      8.45357     10.45458     10.33808        -0.089207      0.032612     -0.019483
Li	      2.19714      2.07643      4.13739         0.070174     -0.023596     -0.026525
Li	      8.40778      6.19066      6.15644        -0.018117      0.049988     -0.014932
Li	      6.11226      4.33283     10.26032        -0.045348      0.039078     -0.003136
Li	      8.32695      6.34093     10.28495         0.003947      0.010171      0.064940
Li	      8.43107      8.32325      8.32138        -0.042027      0.035585     -0.086982
Li	      6.30588      6.23901      8.29933        -0.015993      0.015496     -0.014161
Ti	      2.16331      6.31358      8.20004         0.025795     -0.029128      0.145526
Ti	      6.33996      8.25535     10.28529         0.174640     -0.193554     -0.042468
Ti	      2.12247      4.21865      2.07037         0.029158      0.010185      0.096314
Ti	      6.24637      8.37845      6.16396        -0.040380     -0.154461     -0.019119
Ti	      4.22753      6.44300      6.12066         0.031044     -0.002045      0.008099
Cr	     10.47906      6.27445      8.23405         0.066476      0.001916      0.044436
Cr	      4.18374      4.16774      4.10947         0.005779     -0.247464      0.160741
Cr	      6.33729      4.21066      6.19427        -0.427518      0.128228     -0.280087
Co	      4.10562      8.29410      8.14982         0.144666     -0.103633     -0.028375
O	      1.99740      2.08560      2.07141        -0.111297      0.050052     -0.041368
O	      4.23416      4.26700      2.04303        -0.072428      0.212343      0.023508
O	      4.31501      2.17918      4.11401         0.001052      0.128297      0.015679
O	      6.23491      4.16751      4.13732         0.055182      0.035962      0.115167
O	      6.28171      2.18890      6.17498         0.049006     -0.046994      0.167835
O	      8.30946      4.15781      6.26604         0.069498      0.017657      0.124480
O	      2.16155      4.13355      4.15959        -0.015090      0.032098     -0.096047
O	      4.16823      6.20820      4.11517         0.037460      0.038213     -0.148483
O	      4.21194      4.27797      6.11981         0.100147     -0.041548      0.001840
O	      6.21342      6.27328      6.19338         0.364909     -0.012015      0.069667
O	      6.37013      4.08414      8.21590         0.007423     -0.037718     -0.065974
O	      8.49092      6.09668      8.26655        -0.040328     -0.144868     -0.004861
O	      2.18195      6.23380      6.19959        -0.028601      0.095040     -0.121837
O	      4.22689      8.42279      6.03257        -0.154941     -0.055917     -0.054258
O	      4.09476      6.20440      8.12736        -0.007412      0.078397     -0.045844
O	      6.30349      8.43313      8.21631         0.053840     -0.084619      0.071871
O	      6.24401      6.41080     10.28761         0.051558      0.258870     -0.050719
O	      8.21066      8.40925     10.26893        -0.240413     -0.044862     -0.022181
