# total energy = -255.14871874 eV
 
CRYSTAL
PRIMVEC
0.010565 6.198877 6.366609 
6.294482 0.028484 6.349006 
4.221901 4.146478 -0.006846 
PRIMCOORD
36 1
Li	      2.10753      8.23217      6.36260        -0.025262     -0.013544     -0.031982
Li	      4.23546      8.20731      8.50553         0.010123      0.016962      0.058214
Li	      2.12572      2.11777      4.27009         0.017352     -0.045872      0.010700
Li	      4.11806      4.10707      4.30044        -0.033157     -0.027602      0.007210
Li	      4.09466      2.19176      6.34837        -0.037372      0.037045     -0.036062
Li	      6.26631      4.15734      6.37564        -0.004018     -0.026185     -0.038667
Li	      2.15996      6.14859      4.25316         0.006569      0.014787      0.012796
Li	      2.14830      4.11302      6.33522         0.010812      0.029606      0.049678
Li	      6.34629      6.25826      8.38710         0.019275      0.074965      0.004903
Ti	      4.20850      4.17195      0.07182        -0.031580      0.238410      0.048929
Ti	      1.98375      0.12926      2.06615        -0.110895     -0.030472      0.058528
Ti	      8.39072      4.26486      4.38013        -0.141989      0.303161      0.079719
Ti	      8.46116      4.25288      8.44252         0.123613      0.082308     -0.037108
Ti	      4.34895      6.19924      6.30458         0.330000     -0.111526     -0.199892
Cr	      6.30849      8.30100     10.57012        -0.018232      0.044506     -0.012025
Cr	      0.06309      4.11642      4.22988        -0.015672      0.040125      0.042019
Cr	      4.23633      4.12597      8.44767        -0.082110     -0.044309      0.018634
Cu	      0.06647      2.07670      2.08056         0.084605      0.019809     -0.105185
O	      2.16418      2.05743      2.06751         0.007861     -0.048998      0.017424
O	      4.21429      4.00535      2.15649         0.019931     -0.137895      0.021894
O	      4.17795      1.95814      4.25997        -0.093027     -0.320166      0.018952
O	      6.41684      4.15410      4.13466         0.096566      0.058061     -0.037732
O	      6.28497      1.94094      6.22847        -0.002781     -0.149625      0.096032
O	      8.37506      4.12716      6.33723         0.006739     -0.002701     -0.071143
O	      2.07102      4.13333      4.04989        -0.048350      0.000423     -0.034886
O	      4.18605      6.24079      4.42922         0.040778      0.048654      0.213562
O	      4.20982      4.25579      6.44713         0.005970      0.122041      0.001293
O	      6.16805      6.25354      6.38248        -0.306173      0.000113     -0.036706
O	      6.32657      4.21372      8.55009        -0.035622      0.050945      0.000246
O	      8.38688      6.18810      8.40965         0.035237     -0.083659      0.029344
O	      2.09686      6.20287      6.45720         0.025636      0.000307      0.003184
O	      4.22507      8.28809      6.28417        -0.014045     -0.055240     -0.030091
O	      4.13020      6.16928      8.47328         0.024186      0.028083     -0.018382
O	      6.44337      8.39889      8.53669         0.003185      0.004353     -0.093265
O	      6.25236      6.17570     10.66934         0.006457     -0.106087     -0.024891
O	      8.54207      8.37118     10.47193         0.125390     -0.010781      0.014756
