# total energy = -88.60677446 eV
 
CRYSTAL
PRIMVEC
-1.972021 3.925063 -1.969301 
1.947075 3.899950 1.944208 
1.996823 0.012526 -5.907577 
PRIMCOORD
16 1
Li	      0.07713      3.72867     -3.82618        -0.795218      0.005362     -0.512878
Li	      1.83518      5.58196     -3.72834         0.219214      1.082305     -0.565443
Li	      1.80457      3.72815     -5.53996         0.373004     -0.025892     -1.203595
Li	      1.88225      1.86551     -3.74286         0.062491     -1.107309     -0.218129
Mn	      3.71549      3.71891     -3.73242         5.955833      0.129576     -1.226003
Mn	     -0.00183      5.58241     -1.89404        -3.053426      3.280320     -0.820666
Ni	      0.01376      1.86696     -1.88564        -1.878619     -1.437825     -0.788493
Ni	      1.89316      3.71956     -1.91461         1.215846     -0.220729      2.703797
O	      0.00591      3.73810     -5.74865        -0.624003      0.033439     -1.216577
O	      1.72793      5.55054     -1.85647         3.711423      2.442877     -0.888623
O	      2.01344      3.72332     -3.74610        -2.960190     -0.040911     -2.002012
O	      1.83854      3.62040      0.04666         0.299548      0.119394      2.079270
O	      1.83226      1.88701     -1.75453         2.937081     -2.529131     -1.391079
O	      0.01905      5.68970     -0.11951        -1.613555      0.911385      3.347754
O	     -0.07212      3.81608     -1.86172        -1.906536     -1.417796     -0.360228
O	      0.09845      1.74765     -0.04157        -1.942896     -1.225065      3.062904
