# total energy = -258.80350148 eV
 
CRYSTAL
PRIMVEC
0.007317 6.561202 6.235993 
6.375992 -0.013033 6.253844 
4.234758 4.372152 0.007871 
PRIMCOORD
36 1
Li	      0.14698      6.46514      6.17968         0.019033     -0.056233     -0.015625
Li	      2.14265      8.57223      6.16971         0.010791     -0.061569     -0.006155
Li	      4.20985      6.50379      2.10831         0.033798      0.023369      0.004300
Li	      2.19409      4.36176      2.12173         0.053010     -0.042310     -0.019791
Li	      4.13187      4.52366      4.15815         0.027745      0.024804      0.019291
Li	      4.24679      8.73977      4.27368        -0.000429     -0.038336      0.051038
Li	      2.19278      6.45382      4.30182         0.013025     -0.023693     -0.002148
Li	      2.07066      4.64619      6.11448        -0.003777      0.013161      0.046033
Li	      4.04645      6.63038      6.16633         0.005491      0.059189      0.008438
Ti	      4.22605      2.31909      1.95068         0.117609      0.122125     -0.384975
Ti	      1.97089      2.37323      4.17655        -0.256653      0.248184     -0.081135
Ti	      8.48199      6.58889      6.36500        -0.001374      0.047392     -0.198364
Ti	      8.46942      8.62445      8.30978        -0.141917      0.304880      0.005301
Ti	      6.44331      6.48473      8.34657        -0.369213      0.110406     -0.015877
Cr	      2.08273      0.06546      2.00383         0.047989     -0.152197     -0.005492
Cr	      8.52335     10.88939     10.43624         0.004521      0.152864     -0.175902
Cr	      6.40004      8.67480     10.47423        -0.142506     -0.027954     -0.133436
Cr	      6.36287      4.37259      6.21827        -0.022600     -0.040612      0.038993
O	      2.29262      2.24815      2.21494         0.005678      0.155462      0.157123
O	      4.28059      4.18832      2.10743        -0.111489     -0.177049     -0.009440
O	      4.29165      2.04309      4.16128        -0.056016     -0.100211      0.004361
O	      6.47394      4.55874      4.18027         0.054566      0.015085      0.099362
O	      6.28428      2.34767      6.26190        -0.065321      0.090058      0.047524
O	      8.39209      4.52212      6.19723        -0.033850      0.044176      0.053390
O	      2.14700      4.20123      4.20749        -0.040310     -0.315296     -0.006346
O	      4.38786      6.56403      4.14465         0.382326      0.051329     -0.018974
O	      4.31049      4.27136      6.26815         0.079943     -0.041806      0.045188
O	      6.40639      6.45055      6.22655        -0.021655     -0.080754     -0.036987
O	      6.26756      4.44990      8.21526         0.149958     -0.102444     -0.098009
O	      8.50981      6.55252      8.40091         0.027709     -0.030470      0.274701
O	      2.10845      6.58547      6.25806        -0.018065     -0.005073     -0.134728
O	      4.23706      8.72664      6.37997        -0.012892      0.067073      0.463471
O	      4.29154      6.51846      8.36714         0.085505     -0.028523      0.148968
O	      6.36522      8.56131      8.34754         0.145850     -0.230699      0.026255
O	      6.29839      6.40476     10.29864        -0.080766     -0.021157     -0.107536
O	      8.43422      8.86846     10.32473         0.114285      0.046828     -0.042819
