# total energy = -252.28481803 eV
 
CRYSTAL
PRIMVEC
0.039015 6.401866 6.345419 
6.338903 0.028903 6.355677 
4.206323 4.255351 0.038904 
PRIMCOORD
36 1
Li	      6.38822      6.45832     12.64110         0.059360      0.037610     -0.014457
Li	      8.38742      4.36875      8.48809         0.017258     -0.041622     -0.018834
Li	      6.32284      6.39962      4.30151        -0.032762      0.004635     -0.026829
Li	      8.41052      6.38136      6.42849         0.017761     -0.018446     -0.006187
Li	      6.34224      4.33977      6.44400        -0.014063     -0.017654      0.012917
Li	      6.37388      4.38444     10.52665         0.009838      0.039234     -0.004868
Li	      8.40612      6.39888     10.56760        -0.015730     -0.013046      0.032213
Li	      4.26637      6.35496      6.31990        -0.063334     -0.046070     -0.081708
Li	      4.31708      4.27691      8.44313         0.003135      0.014258     -0.030935
Ti	      2.25603      8.63016      6.36586         0.063757      0.103541     -0.021213
Ti	      2.21460      6.44867      8.42034         0.224971     -0.078253     -0.203332
Ti	     10.42292      6.53304      8.49483        -0.176086      0.270692     -0.007121
Ti	      4.14527      4.28872      4.30132        -0.209143      0.058206      0.160464
Ti	      6.25949      8.33753      6.41828        -0.051323     -0.164552      0.089361
Mn	      6.37734      8.45837     10.61889        -0.000066      0.049836     -0.043465
Cr	      4.23851      0.04549      4.26594        -0.009433      0.042843     -0.062268
Co	      4.20982      8.56780      8.40315        -0.055005     -0.010845     -0.053218
Cu	      6.46425      6.22695      8.46795         0.025291     -0.071672     -0.086318
O	      2.04723      2.07321      2.05038        -0.108297     -0.083060     -0.104908
O	      4.30979      4.33448      2.27085         0.068083      0.104414      0.063147
O	      4.19872      2.16941      4.25642        -0.080642      0.018160      0.120060
O	      6.30519      4.27596      4.18384         0.004976      0.078346     -0.031780
O	      6.50626      2.13071      6.48798         0.052111      0.029880      0.135844
O	      8.47180      4.16083      6.33544         0.023654     -0.173549     -0.013661
O	      2.22315      4.27455      4.36236         0.247634     -0.058299      0.120775
O	      4.24530      6.20810      4.14895        -0.028645     -0.173434     -0.046513
O	      4.11710      4.28913      6.23175        -0.099888     -0.062588     -0.233719
O	      6.30174      6.52444      6.41665        -0.011420      0.082082      0.079502
O	      6.36833      4.11634      8.50265        -0.039926     -0.301081     -0.005474
O	      8.59650      6.40492      8.46608         0.230927      0.002248      0.026758
O	      2.17392      6.49619      6.47353         0.033101      0.076484      0.217271
O	      4.28186      8.51397      6.29790         0.002387      0.032991     -0.060203
O	      4.11197      6.40534      8.59978        -0.220947     -0.048525      0.060138
O	      6.37727      8.74772      8.37142         0.033773      0.294197     -0.085187
O	      6.24543      6.40713     10.57069         0.025972     -0.038627     -0.054308
O	      8.48454      8.65185     10.75902         0.072721      0.061666      0.178058
