# total energy = -251.48792810 eV
 
CRYSTAL
PRIMVEC
0.020879 6.328421 6.263006 
6.325062 0.014125 6.269932 
4.213714 4.220423 0.012488 
PRIMCOORD
36 1
Li	      0.03935      0.03247      0.01035         0.040802      0.128278     -0.009879
Li	      6.29154      4.20526      2.09251        -0.028542      0.021338     -0.064245
Li	      6.36346      8.43761     10.40788         0.033107     -0.070590     -0.043494
Li	      4.22153      6.28889      2.10247        -0.018785     -0.092956     -0.047341
Li	      2.12262      4.23099      2.11656        -0.003627      0.023870     -0.006702
Li	      4.22767      4.24145      4.12816        -0.028021      0.036630     -0.064746
Li	      6.34119      4.24582     10.38863        -0.038448     -0.012129     -0.141534
Li	      8.42419      8.44927      8.39668        -0.018551     -0.044294      0.018776
Li	      6.33733      6.33885      8.40170         0.018951     -0.035603      0.036324
Ti	      4.32024      2.26549      2.06278         0.139502      0.451968      0.004858
Ti	      4.33086      6.19503     10.38080         0.293295     -0.400866      0.137044
Ti	      2.04043      2.16652      4.06828        -0.127107      0.144023     -0.314054
Ti	      8.49232      6.37866      6.39320         0.176436      0.054688      0.412436
Ti	      6.32992      4.13101      6.40367         0.042109     -0.263643      0.503359
Mn	      8.37961      6.34541     10.38676        -0.044882      0.060090     -0.047871
Cr	      4.19716      6.32076      6.32031         0.001229      0.011561      0.047336
Co	      8.36482      2.20198      6.31534        -0.006777      0.061593     -0.059371
Ni	      2.12382      4.24999      6.27565         0.037651     -0.016776      0.063260
O	      2.16282      2.10195      2.20183        -0.016718     -0.005634      0.350493
O	      4.21111      4.08793      2.09269         0.046085     -0.337312      0.021984
O	      4.13736      2.05956      4.16492         0.021744      0.097609     -0.022574
O	      6.44545      4.35234      4.30112        -0.064478     -0.001541     -0.055801
O	      6.24010      2.13982      6.25016        -0.064878      0.054116     -0.102600
O	      8.39201      4.35628      6.18671        -0.042727      0.108715     -0.083555
O	      2.12800      4.08605      4.22669        -0.000816     -0.144585     -0.072865
O	      4.32884      6.31572      4.27325         0.124915     -0.060817      0.109259
O	      4.28353      4.23701      6.26904         0.029771      0.154077     -0.025257
O	      6.33047      6.30687      6.21004        -0.042863     -0.012465      0.044944
O	      6.35407      4.22434      8.22220         0.057516     -0.025370     -0.344119
O	      8.43324      6.34062      8.24026        -0.050645      0.007399     -0.268970
O	      2.23891      6.28637      6.25430         0.091298      0.026037      0.016655
O	      4.26449      8.34663      6.38364        -0.083104     -0.181459      0.094393
O	      4.21403      6.40952      8.41637        -0.021026     -0.002244     -0.126858
O	      6.20629      8.44381      8.35477        -0.183871      0.035497      0.097036
O	      6.20022      6.33070     10.45902        -0.224532     -0.063458     -0.023213
O	      8.42707      8.54383     10.38970        -0.044015      0.294253     -0.033110
