# total energy = -253.32126589 eV
 
CRYSTAL
PRIMVEC
0.037680 6.272403 6.402121 
6.302513 0.038451 6.401461 
4.202758 4.182266 0.024442 
PRIMCOORD
36 1
Li	      0.07026      6.22966      6.39067        -0.011520      0.057906     -0.007054
Li	      4.22144      8.35568      8.49625        -0.006713      0.026591     -0.057412
Li	      8.38182      4.21730      4.35084        -0.029830     -0.006791      0.047012
Li	      6.22591      6.34276      4.38923        -0.014927     -0.021011      0.037672
Li	      6.32048      4.25815      6.39418         0.026887     -0.029569     -0.007287
Li	      0.14266      4.12870      4.30124         0.015029      0.020433     -0.011262
Li	      2.04646      4.18676      6.29347        -0.023241      0.026237      0.046343
Li	      4.25258      6.27722      6.34266        -0.026842     -0.037974     -0.013934
Li	      4.28114      4.20242      8.46733        -0.023735     -0.001123     -0.038702
Ti	      2.31073      8.42219      6.37078         0.267460      0.101761     -0.129144
Ti	      6.40129     10.39363      8.55137        -0.021429     -0.124401      0.106692
Ti	      6.32078      8.42529     10.59781         0.097183     -0.021769      0.041039
Ti	      4.17218      2.24591      6.37813        -0.118311      0.186846      0.015614
Ti	      6.15494      6.24636      8.57653         0.079826     -0.034510      0.044881
Mn	      2.14584      4.15413      2.23758        -0.027796     -0.000453     -0.061349
Cr	      6.29842      2.17882      8.52933         0.037753      0.107069      0.030756
Co	      4.20991      4.23966      4.32040         0.007636      0.032399      0.019691
Co	      2.16604      6.20539      4.37662        -0.064700      0.013980      0.056931
O	      2.02686      2.02495      2.01110         0.057058     -0.107234      0.011520
O	      4.32928      4.29176      2.17361         0.109131     -0.088415     -0.042229
O	      4.31101      2.07380      4.42152         0.046755      0.049422     -0.006676
O	      6.32134      4.17479      4.18987        -0.021943     -0.029198     -0.035875
O	      6.23115      2.11140      6.40321         0.025080      0.001941      0.104956
O	      8.41111      4.13213      6.42906         0.017458     -0.113768     -0.060763
O	      2.15684      4.18660      4.32929         0.027297     -0.035103      0.012539
O	      4.18785      6.32510      4.14010         0.058625     -0.072206     -0.006608
O	      4.22690      4.08899      6.39519        -0.012031     -0.180986      0.028848
O	      6.44164      6.27616      6.56197         0.096009      0.034291      0.056077
O	      6.27616      4.24484      8.55760        -0.118416      0.038794     -0.021744
O	      8.45275      6.33152      8.42618        -0.028708      0.128780     -0.000910
O	      2.15556      6.37635      6.53017        -0.022664      0.041642     -0.037022
O	      4.11596      8.38414      6.40503        -0.313623     -0.024158      0.005137
O	      4.22881      6.25970      8.55331        -0.036357      0.017461     -0.009282
O	      6.28116      8.34810      8.60066        -0.039335      0.014042     -0.120346
O	      6.38565      6.36135     10.52981        -0.043140     -0.033182     -0.068085
O	      8.27642      8.36894     10.84700         0.036074      0.062257      0.069977
