# total energy = -248.01109762 eV
 
CRYSTAL
PRIMVEC
0.051667 6.345563 6.314535 
6.349397 0.018107 6.348199 
4.229622 4.249399 0.015390 
PRIMCOORD
36 1
Li	      2.28598      8.47466      6.29642        -0.065887     -0.027587     -0.042585
Li	      8.44275      4.27399      4.30347         0.008030      0.057491      0.032301
Li	      2.16491      4.20263      2.25833         0.006176      0.050436     -0.052460
Li	      2.11383      2.31492      4.22292         0.012877     -0.016902     -0.005991
Li	      4.05263      4.26646      4.29331         0.030521      0.019448      0.060455
Li	      6.37053      4.27760      6.29408        -0.007271      0.036967     -0.023326
Li	      2.18942      6.17052      4.30973         0.000967      0.002164      0.061720
Li	      2.10604      4.23503      6.12944         0.011286     -0.031329      0.095008
Li	      4.24269      6.43096      6.23902         0.003885     -0.009347     -0.049088
Ti	      6.46107      2.24819      4.29966         0.107670      0.160976      0.087405
Ti	      2.23141      6.43251      8.33842        -0.014300      0.084603     -0.252543
Ti	      4.25698      6.36822      2.29309         0.016875     -0.056958      0.375780
Ti	      8.39835      6.34367      6.24038        -0.167608     -0.061057     -0.084115
Ti	      6.27817      6.30432      8.45183         0.035661     -0.041186     -0.075201
Mn	      4.24757     10.45406      6.29606         0.064389      0.103513     -0.039417
Cr	      4.27797      4.20862      8.41134         0.043551      0.024935     -0.034507
Cu	      4.09458      2.18945      2.08396        -0.123755      0.090665      0.005242
Ni	      0.15084      4.19737      4.28545        -0.211093      0.101422     -0.091374
O	      1.97761      2.04965      2.11384         0.056871     -0.055233     -0.044366
O	      4.36408      4.44466      2.14654        -0.014767     -0.010549      0.091111
O	      4.36696      2.14349      4.33452         0.011614     -0.003463      0.058473
O	      6.39948      4.11598      4.09495         0.041366     -0.246837      0.034060
O	      6.31094      2.15399      6.24112         0.031767      0.021879     -0.015950
O	      8.46216      4.44895      6.38109        -0.038538      0.128869     -0.061632
O	      2.12153      4.23956      4.19606         0.024008     -0.050606     -0.020242
O	      4.21700      6.39422      4.11561         0.045138     -0.126661     -0.316582
O	      4.28960      4.07613      6.44345        -0.005641     -0.094171     -0.031808
O	      6.46784      6.34554      6.50473         0.127356      0.019477      0.036035
O	      6.30991      4.23114      8.50036         0.065657      0.018574     -0.146542
O	      8.54322      6.43513      8.36000        -0.022615     -0.091622      0.026368
O	      2.18495      6.31094      6.50871         0.017648      0.005447      0.236971
O	      4.23513      8.42156      6.29038         0.054193     -0.061680      0.232133
O	      4.28058      6.24876      8.41911         0.006103      0.014163      0.038474
O	      6.48110      8.46471      8.56262        -0.015482     -0.040057      0.004728
O	      6.39854      6.45521     10.38631         0.018900      0.054668     -0.054275
O	      8.41294      8.48343     10.50761        -0.155551      0.029551     -0.034263
