# total energy = -248.81236648 eV
 
CRYSTAL
PRIMVEC
-0.033637 6.401663 6.525010 
6.327249 0.028053 6.462598 
4.222544 4.230938 0.014627 
PRIMCOORD
36 1
Li	      4.23421      4.21138      0.05157         0.051811     -0.009714      0.013827
Li	      4.21832      2.16368      2.14234        -0.027768     -0.025501      0.035506
Li	      4.16338      6.34888      2.39024         0.074363      0.001289      0.061836
Li	      2.13769      4.36997      2.37145         0.033256      0.004544      0.037956
Li	      6.22688      6.56356      4.47024        -0.018521     -0.045625     -0.006582
Li	      3.98395      4.36888      4.32409         0.045403     -0.002329     -0.031823
Li	      2.22355      6.21344      4.28039        -0.059671      0.061441      0.013946
Li	      2.10262      4.15350      6.30267        -0.031332      0.115195     -0.023434
Li	      6.36927      6.34348      8.52893        -0.037006      0.028111      0.059384
Ti	      2.17537      2.16164      0.13069         0.025106     -0.086842      0.402036
Ti	      6.15630      4.21401      2.14055        -0.334436      0.162046     -0.133864
Ti	      4.17419      6.47646     10.76187         0.050459      0.162599     -0.159365
Ti	      6.28987      8.44776     10.87829        -0.164833     -0.098914      0.015974
Ti	      4.26902      4.09866      8.50576         0.110494     -0.161666     -0.217192
Mn	      4.28962      6.37680      6.43759        -0.246436      0.024932      0.038505
Cr	      0.03889      4.24350      4.32002         0.020459      0.070165      0.093190
Cu	      8.29308      6.36662      6.54067         0.077297      0.014312     -0.000093
Cu	      6.35064      4.39479      6.62788         0.093798     -0.022507      0.128484
O	      2.14740      2.01499      2.01073        -0.056978     -0.026754     -0.311394
O	      4.34265      4.20761      2.20093         0.339385      0.051638     -0.005554
O	      4.37438      2.00764      4.25423         0.110614     -0.156346      0.011759
O	      6.44205      4.13890      4.16725         0.067322     -0.013130     -0.128609
O	      6.51866      2.11808      6.24059        -0.020384      0.020021     -0.151198
O	      8.48433      4.08519      6.27017        -0.054177     -0.008549     -0.096522
O	      1.98252      4.30008      4.31962        -0.002552     -0.023904      0.065740
O	      4.19729      6.50299      4.34521         0.012384     -0.003057      0.032886
O	      4.11323      4.30154      6.64415         0.028502     -0.139857      0.162323
O	      6.28538      6.44614      6.54578         0.198610     -0.106500     -0.030337
O	      6.16271      4.29531      8.79619        -0.121306     -0.031697      0.006603
O	      8.42174      6.51132      8.74250         0.006682      0.202172     -0.114540
O	      2.08633      6.51356      6.71166        -0.049164      0.052205      0.156698
O	      4.06180      8.53566      6.41244        -0.138246      0.072820     -0.059852
O	      4.11766      6.31468      8.82469         0.017545     -0.015319      0.131095
O	      6.42325      8.63790      8.82991         0.045952     -0.049101      0.014408
O	      6.19277      6.47739     10.78659         0.000459      0.042667      0.024839
O	      8.40300      8.59544     10.82683        -0.047093     -0.058846     -0.036634
