# total energy = -253.60231811 eV
 
CRYSTAL
PRIMVEC
-0.008803 6.324782 6.287611 
6.396015 -0.004648 6.283293 
4.284940 4.234502 -0.024036 
PRIMCOORD
36 1
Li	      8.49135      8.44412     12.39198         0.031925     -0.008229      0.112920
Li	      8.47358     10.45896     10.42758        -0.025567      0.013114     -0.046093
Li	      6.54166      8.49732     10.50354         0.024242      0.053487     -0.033702
Li	      4.38913      4.20131      4.29873         0.032686     -0.017285      0.000550
Li	      4.28687      2.10883      6.24012        -0.006812      0.050759     -0.046525
Li	      6.34909      4.20378      6.23366        -0.080948      0.006400     -0.018834
Li	      8.52119      6.48741     10.48384         0.019084     -0.043730      0.056874
Li	      4.28040      6.29204      6.29910         0.017066      0.015966     -0.068009
Li	      6.37711      6.31447      8.37352        -0.011932      0.010755      0.004913
Ti	      6.35538      6.34358     12.35664         0.039842     -0.113683     -0.446736
Ti	     10.60865      6.31008      8.38232         0.081146      0.028249      0.232027
Ti	      8.56230      4.27464      8.38265        -0.082018      0.059459      0.067088
Ti	      6.50410      6.29438      4.28567         0.074052      0.083001      0.193447
Ti	      2.25124      4.19228      6.22997         0.292967     -0.221448     -0.227906
Mn	      4.30541      8.34814      8.41986         0.027827     -0.144360     -0.058372
Cr	      6.41120      4.23160      2.08779         0.094486     -0.137084      0.085868
Fe	      8.55999      8.45384      8.38927        -0.118211     -0.007632      0.121054
Co	     10.53329      8.46292     10.44667         0.331116     -0.075866      0.200526
O	      2.05474      2.08291      2.15498        -0.111465      0.036922     -0.059641
O	      4.28199      4.26420      2.06949        -0.017889      0.097647     -0.040866
O	      4.07268      2.14083      4.22150        -0.109280     -0.059942      0.017484
O	      6.39557      4.33940      4.12436         0.041823     -0.046551     -0.071254
O	      6.40972      1.96322      6.40463         0.020202     -0.060159      0.105838
O	      8.72673      4.18878      6.43656         0.057310      0.063349      0.174034
O	      2.10841      4.18250      4.17410        -0.416514      0.163324     -0.256706
O	      4.39321      6.33443      4.04167        -0.095164      0.115501     -0.268017
O	      4.12399      4.22430      6.24546        -0.284113      0.047114      0.119724
O	      6.34272      6.42377      6.22118         0.008788     -0.138724      0.051625
O	      6.55376      4.13242      8.32365        -0.036504     -0.037841      0.006633
O	      8.59113      6.29443      8.37969         0.152736     -0.191349      0.072965
O	      1.99992      6.24409      6.35246        -0.193637      0.163235      0.037539
O	      4.39584      8.58807      6.22823        -0.150222      0.035457     -0.027706
O	      4.11558      6.26698      8.34318        -0.132865      0.248418     -0.075561
O	      6.39349      8.54265      8.25839         0.027709      0.056070     -0.030776
O	      6.36584      6.39829     10.53446        -0.021106     -0.006707      0.416587
O	      8.56928      8.43987     10.48576         0.519241     -0.037634     -0.300992
