# total energy = -251.82802664 eV
 
CRYSTAL
PRIMVEC
0.021347 6.314831 6.326864 
6.367564 0.017329 6.330502 
4.253782 4.220919 0.002930 
PRIMCOORD
36 1
Li	      6.36640      0.10281      6.25406         0.056889      0.038753     -0.012508
Li	      4.26780      2.11177      2.31367         0.022856     -0.058993      0.024864
Li	      4.27975      0.16782      4.26301         0.032702     -0.010425      0.013646
Li	      6.19124      2.12297      4.31699        -0.062522     -0.049370     -0.020224
Li	      4.29664      4.02940      4.26835        -0.001452     -0.000320      0.064342
Li	      4.41093      2.11879      6.18363        -0.011253     -0.008932      0.039221
Li	      8.47610      6.33288     10.50920        -0.056818     -0.061175     -0.066650
Li	      2.11311      4.23935      6.31608        -0.009714      0.086929      0.027813
Li	      8.51683      8.39756      8.46791        -0.063287      0.023440     -0.059153
Ti	      2.31732      4.22983      2.09125         0.077917      0.143892     -0.011990
Ti	     10.51272      8.44197     10.57229         0.160119      0.233712     -0.108856
Ti	      6.35125      4.14621      2.23494        -0.005509     -0.231575     -0.076684
Ti	      4.20119      6.23608      6.33346        -0.415688     -0.111461      0.073557
Ti	      6.41733      6.49597      8.48841         0.140292      0.223946      0.230769
Mn	      2.27646      2.13722      4.26352         0.017083      0.035146      0.059471
Cr	      6.37709      4.17973      6.34710        -0.012716     -0.123322     -0.124035
Fe	      8.48762      8.42797     12.59909        -0.244817      0.033562      0.058613
Cu	     10.50417      6.24193      8.43233        -0.043861     -0.175727     -0.008233
O	      2.18044      2.13361      2.08856         0.076024      0.200725     -0.245582
O	      4.25853      4.15664      2.08575        -0.022812     -0.007028      0.061423
O	      4.26457      2.10237      4.26979         0.029536     -0.012528     -0.003133
O	      6.38263      4.20389      4.15338         0.002079     -0.022563      0.016224
O	      6.36981      2.23298      6.29224         0.038584     -0.014377      0.020043
O	      8.41543      4.20400      6.46815        -0.068446      0.343337      0.256425
O	      2.02513      4.25990      4.01848        -0.045082     -0.016385     -0.107543
O	      4.27312      6.43008      4.35953        -0.080963      0.038525     -0.002095
O	      4.33612      4.34684      6.30048         0.119717      0.267300      0.013117
O	      6.23189      6.28327      6.48055         0.012746     -0.059357     -0.003624
O	      6.45417      4.36777      8.41279        -0.068617      0.000951     -0.036459
O	      8.32892      6.26534      8.40784        -0.092531     -0.001453     -0.020855
O	      2.23778      6.30435      6.49217         0.241114     -0.395293      0.073797
O	      4.31994      8.37553      6.13754         0.021882     -0.058023     -0.293901
O	      4.24152      6.36867      8.32301         0.015269      0.003797     -0.049450
O	      6.41758      8.42909      8.44968        -0.039233     -0.137750     -0.004120
O	      6.36225      6.22284     10.42187        -0.033505     -0.050740     -0.153647
O	      8.67026      8.40254     10.47404         0.314018     -0.067218      0.375418
