# total energy = -89.52432861 eV
 
CRYSTAL
PRIMVEC
-1.982400 3.945721 -1.979666 
1.957323 3.920476 1.954441 
2.007333 0.012592 -5.938669 
PRIMCOORD
16 1
Li	      0.07794      3.76803     -3.86655        -0.690254      0.010194     -0.446429
Li	      1.85455      5.64087     -3.76768         0.186127      0.932360     -0.472829
Li	      1.82362      3.76749     -5.59843         0.321806     -0.024351     -1.043034
Li	      1.90211      1.88520     -3.78236         0.051336     -0.949682     -0.177192
Mn	      3.75471      3.75816     -3.77181         5.164690      0.115570     -1.134431
Mn	     -0.00185      5.64132     -1.91403        -2.573577      2.868218     -0.683406
Ni	      0.01391      1.88667     -1.90554        -1.565599     -1.230895     -0.633874
Ni	      1.91314      3.75882     -1.93482         0.991260     -0.192857      2.355423
O	      0.00597      3.77755     -5.80932        -0.515002      0.033941     -1.157115
O	      1.74616      5.60912     -1.87607         3.162097      2.152165     -0.829672
O	      2.03468      3.76261     -3.78564        -2.469491     -0.039992     -1.768116
O	      1.85795      3.65861      0.04716         0.249495      0.072726      1.926594
O	      1.85160      1.90692     -1.77305         2.545971     -2.252477     -1.226413
O	      0.01925      5.74975     -0.12077        -1.462510      0.833093      2.914002
O	     -0.07288      3.85636     -1.88137        -1.664897     -1.196734     -0.317194
O	      0.09949      1.76609     -0.04201        -1.731453     -1.131278      2.693686
