# total energy = -249.96506475 eV
 
CRYSTAL
PRIMVEC
0.016695 6.313870 6.212231 
6.270482 0.030959 6.198009 
4.217943 4.237588 -0.017182 
PRIMCOORD
36 1
Li	      6.32440      6.29804     12.31992        -0.045310      0.010031      0.028605
Li	      6.29504     10.52983      8.22022        -0.099561      0.073880     -0.039272
Li	      6.26483      6.40270      4.34464         0.010796      0.091646     -0.071741
Li	      8.26009      6.30048      6.20338         0.007463     -0.174898      0.084901
Li	      6.34188      4.38469      6.16657         0.142391     -0.007635      0.104819
Li	      0.15697      4.24821      4.20459         0.187543      0.052628     -0.145436
Li	      2.05943      6.27041      4.20355         0.016642     -0.129853     -0.070267
Li	      6.25844      8.39347      6.09213         0.006445     -0.004962     -0.041523
Li	      4.31085      6.38588      6.13086         0.007013      0.026352     -0.061914
Ti	      2.17494      8.31515      6.17882        -0.067278      0.084882      0.243250
Ti	      0.02283      2.05239      2.02271        -0.222637     -0.060309      0.098317
Ti	      4.19023      8.38236      8.18747        -0.529513      0.769150     -0.151034
Ti	      4.16136      4.29405      4.29675        -0.646920      0.235170     -0.443411
Ti	      4.17595      4.28330      8.20118         0.531673     -0.696888     -0.251556
Mn	      8.34874      4.31563      4.22989        -0.065786      0.071165      0.338574
Cr	      6.28668      2.12708      4.16710        -0.046881     -0.025188      0.081101
Fe	      6.31787      6.32289      8.16261         0.229639     -0.201491      0.189315
Ni	      8.36589      4.28931      8.26342        -0.007144      0.003051      0.104636
O	      2.12315      2.12597      2.03173         0.156677     -1.137433     -0.337488
O	      4.19767      4.24082      2.11101         1.125516     -0.068112      0.170308
O	      4.26779      2.23487      4.06352         0.011910      0.072158     -0.153824
O	      6.16667      4.13456      4.16840        -0.077649     -0.104521      0.000555
O	      6.33987      2.07937      6.21115         0.109449     -0.015493      0.165935
O	      8.37001      4.11514      6.28517         0.038029     -0.366390     -0.855937
O	      2.24946      4.22809      4.09084         0.567673     -0.004928      0.709268
O	      4.28504      6.19918      3.99584        -0.069937     -0.168167     -0.102559
O	      4.15414      4.28275      6.21756         0.031842      0.020752      0.401917
O	      6.32255      6.34559      6.25691        -0.117930      0.099063     -0.250105
O	      6.18204      4.09293      8.31370        -1.120207     -0.070625      0.027865
O	      8.55149      6.46076      8.20476         0.057110      1.395332      0.056761
O	      2.12558      6.48732      6.19583         0.079203      0.323606     -0.076405
O	      4.19564      8.46398      6.23648        -0.101184     -0.073118      0.385467
O	      4.13897      6.38336      8.25155        -0.070662     -0.069593      0.006447
O	      6.33563      8.51506      8.32478        -0.081421      0.028924      0.017910
O	      6.29493      6.44056     10.21574         0.019218      0.074783      0.164177
O	      8.33027      8.45900     10.30990         0.033788     -0.052972     -0.327658
