# total energy = -255.75474205 eV
 
CRYSTAL
PRIMVEC
-0.022498 6.295813 6.386082 
6.313043 -0.045670 6.409475 
4.175686 4.179792 0.002035 
PRIMCOORD
36 1
Li	      0.09408      6.23618      6.43859         0.074877     -0.059213     -0.010283
Li	      2.07283      8.34577      6.41438         0.021002     -0.022718     -0.013173
Li	      4.19061      8.41329      8.41535         0.010706      0.027720     -0.074320
Li	      4.18425      6.25469      2.15498         0.001649     -0.022563     -0.013076
Li	      6.23008      6.29729      4.26559         0.010297      0.024078     -0.037940
Li	      4.13490      4.24478      4.23277        -0.044691      0.014672     -0.046799
Li	      2.11136      6.23781      4.31526        -0.014933     -0.036800      0.068458
Li	      6.21405      8.38894      6.38968         0.007461      0.032857      0.008313
Li	      6.29019      6.26349      8.47149         0.013912      0.000571      0.028313
Ti	      4.20884      6.29590     10.52533         0.061592      0.297659     -0.113351
Ti	      6.23314      8.28206     10.64531        -0.063722     -0.049448     -0.201345
Ti	      2.20450      4.07119      2.21336         0.273599     -0.207297      0.332828
Ti	      8.33763      6.29828      6.45438        -0.108496     -0.050046      0.138568
Ti	      4.11531      6.33935      6.30732        -0.244200      0.282080     -0.465830
Mn	      6.30538      4.18023     10.67358         0.150141     -0.176986      0.039100
Cr	      6.29291      4.17225      6.39853         0.000336     -0.036358      0.065202
Fe	      2.03178      0.08960      2.12544        -0.078092      0.070919      0.023169
Fe	      8.36838      8.28495      8.54093         0.118073     -0.075976     -0.031765
O	      2.06580      2.16539      2.11720         0.007110      0.312807     -0.003980
O	      4.07033      4.17220      2.09280        -0.348461     -0.004880      0.013071
O	      4.21143      2.00122      4.39453         0.087864      0.012700      0.262526
O	      6.34223      4.09926      4.35405         0.046474      0.070008      0.085780
O	      6.21986      2.14433      6.30327        -0.097460      0.005225     -0.250766
O	      8.32259      4.21645      6.38346        -0.064620      0.023025     -0.046000
O	      2.09268      4.19543      4.07012         0.074369     -0.035752     -0.404937
O	      4.17522      6.25085      4.43488         0.004736     -0.020627      0.425881
O	      4.24155      4.16882      6.38608        -0.005692      0.023702     -0.025736
O	      6.26701      6.21151      6.42256         0.005179      0.005069     -0.017356
O	      6.30762      4.12346      8.43504         0.094939     -0.001399     -0.125754
O	      8.36942      6.11823      8.40043        -0.004849     -0.045209     -0.289706
O	      2.21511      6.23650      6.41330         0.305132      0.030647     -0.046054
O	      4.21659      8.22466      6.41679        -0.024405     -0.333569      0.020610
O	      4.21905      6.30259      8.59215         0.004415      0.016184      0.220103
O	      6.31662      8.43858      8.68716        -0.128321     -0.039728      0.366380
O	      6.23946      6.31919     10.71828        -0.137285     -0.042906      0.094182
O	      8.29613      8.42692     10.70651        -0.008633      0.011551      0.025689
