# total energy = -247.49078268 eV
 
CRYSTAL
PRIMVEC
-0.021927 6.344822 6.259678 
6.249605 -0.036833 6.274901 
4.175182 4.248851 -0.033225 
PRIMCOORD
36 1
Li	      4.22658      8.40337      8.40100        -0.067216      0.066714     -0.053798
Li	      4.16386      6.35062     10.37022         0.103755      0.019692      0.034473
Li	      6.20797      8.41403     10.36503         0.058278     -0.171339     -0.054787
Li	      6.24489      2.10950      8.38142         0.001269     -0.100454      0.031408
Li	      4.19480      4.19621      4.17357        -0.149368      0.035987     -0.239279
Li	      6.25987      8.42515      6.28949        -0.198149      0.082071      0.018328
Li	      4.19433      6.30308      6.29817        -0.136304      0.201726      0.025299
Li	      4.16828      4.26734      8.34447        -0.038162     -0.018731      0.141301
Li	      6.11753      6.37210      8.35261        -0.010538      0.028139      0.083890
Ti	      2.12138      2.15556      0.01272         0.837407     -0.102603      0.283010
Ti	      6.36337     10.43974      8.39380         0.078396     -0.160011     -0.564753
Ti	      8.33409      4.21723      8.34781         0.631934      0.009892      0.123057
Ti	      4.14838      2.24995      6.24498         0.176196     -1.344191      0.410107
Ti	      8.36787      6.28493     10.31963        -0.161468     -0.215559     -0.193043
Mn	      6.25416      6.30812     12.50021         0.015605     -0.305597      0.084616
Cr	      6.22593      6.34401      4.17672        -0.225739      0.640338     -0.732538
Ni	      6.17327      4.23229      6.23154         0.551064     -0.125456      0.154046
Ni	      6.19440      4.18571     10.39203         0.044156      0.059484      0.323135
O	      2.06044      2.10132      2.09369        -0.029045     -0.103168      0.256765
O	      4.08143      4.24254      2.06771         0.013019     -0.012880      0.022500
O	      4.06438      2.09058      4.31358        -0.012459      0.123012      0.202095
O	      6.21255      4.35537      4.04291        -0.039241     -0.123646      0.475800
O	      6.22632      2.08231      6.24486        -0.267012      0.746336     -0.087662
O	      8.31517      4.18044      6.21941        -0.726483      0.126289     -0.190321
O	      2.06365      4.21697      4.15193         0.082970     -0.258822      0.075864
O	      4.11769      6.38207      4.15431         0.172750     -0.155567      0.127395
O	      4.15307      4.05637      6.29126         0.218528      0.763957     -0.067102
O	      6.34316      6.33067      6.17522        -0.005138     -0.272223      0.046173
O	      6.42166      4.21549      8.35082        -0.344770     -0.000886     -0.557414
O	      8.36410      6.32725      8.31934        -0.000885      0.225035     -0.228960
O	      2.09694      6.44646      6.29909         0.133715     -0.051752      0.070006
O	      4.00321      8.46159      6.21705        -0.484615      0.001856     -0.017365
O	      4.02931      6.32503      8.36681        -0.324303     -0.127658      0.008300
O	      6.19926      8.62360      8.33434         0.119125      0.388186      0.061293
O	      6.41407      6.25958     10.38028         0.138994      0.077149     -0.024207
O	      8.31668      8.30929     10.52537        -0.156267      0.054680     -0.047631
