# total energy = -256.04516455 eV
 
CRYSTAL
PRIMVEC
0.004388 6.320394 6.219248 
6.319829 -0.004225 6.228078 
4.211152 4.217277 -0.000858 
PRIMCOORD
36 1
Li	      4.16717      2.12786      2.33118         0.004809      0.025759     -0.121367
Li	      4.08330      0.15027      4.09981        -0.034509      0.001319     -0.003288
Li	      6.17148      2.23883      4.11122         0.018219      0.028603     -0.013704
Li	      2.16142      4.16549      2.22602         0.001420      0.017970      0.044604
Li	      2.22272      2.06647      4.09985        -0.106709      0.017047     -0.004673
Li	      4.26115      4.09548      4.08211        -0.013726      0.106054     -0.008178
Li	      0.05418      4.12975      4.10006         0.044547     -0.066743      0.022362
Li	      2.17416      6.28577      4.14734         0.049258     -0.016378      0.032435
Li	      4.21260      6.31034      6.12388        -0.024047     -0.016629     -0.033929
Ti	      6.31894      6.22773     12.33769        -0.013832     -0.042627      0.004122
Ti	      8.55166      8.50826     12.31070         0.077315     -0.122550     -0.173021
Ti	      4.25407      6.27773      2.20210        -0.055180      0.101836      0.572521
Ti	      2.01364      4.27638      6.10122        -0.027480      0.011811     -0.354874
Ti	      6.27218      6.30764      8.43731        -0.074006      0.003476      0.157739
Mn	      6.28937      4.26065      6.06267        -0.020838      0.016185     -0.050317
Cr	      4.21512      2.10174      6.16274        -0.052734      0.013366     -0.084796
Cr	      8.40935      8.42116      8.39992         0.066355     -0.054987      0.015047
Co	      6.34704      4.24732      2.14319         0.032521     -0.031285     -0.071332
O	      1.98481      2.16686      1.90995         0.063968     -0.015237     -0.076112
O	      4.19363      4.32418      1.94023        -0.001997     -0.069471     -0.120961
O	      4.19383      2.12519      4.24372         0.024815      0.006650      0.025369
O	      6.30561      4.23572      4.06624        -0.010186      0.024009      0.094206
O	      6.29651      2.04723      6.25351         0.050776     -0.100885      0.013123
O	      8.48811      4.24675      6.20481         0.041649      0.006745     -0.018238
O	      2.09344      4.22427      4.29445         0.011811     -0.035578      0.350382
O	      4.22246      6.30870      4.00398        -0.006630      0.001753     -0.341951
O	      4.11238      4.13379      6.36113        -0.074410      0.033577      0.045971
O	      6.40610      6.41527      6.35688        -0.064945      0.039023      0.068386
O	      6.23895      4.20107      8.30426         0.055113      0.077084      0.043564
O	      8.43481      6.36030      8.27246        -0.040357     -0.024277     -0.007084
O	      2.09067      6.34618      6.25394         0.045402     -0.007333     -0.144904
O	      4.20943      8.39295      6.24319         0.084205      0.061544     -0.064110
O	      4.33051      6.20637      8.31329         0.015204      0.122680     -0.001682
O	      6.37795      8.34002      8.28409        -0.055699     -0.123035      0.006729
O	      6.37777      6.28369     10.37499        -0.021493     -0.013579     -0.077885
O	      8.45915      8.40255     10.43027         0.011393      0.024101      0.275847
