# total energy = -254.50838065 eV
 
CRYSTAL
PRIMVEC
0.046248 6.451432 6.200131 
6.448129 0.011263 6.235032 
4.283386 4.308761 0.022947 
PRIMCOORD
36 1
Li	      6.51168     10.67754      8.38239         0.050158     -0.054977     -0.008289
Li	      8.63795     10.60238     10.31546         0.038389      0.037910     -0.011803
Li	      6.65564      8.62514     10.31231         0.001565     -0.064106     -0.047595
Li	     10.69688      6.50937      8.38449        -0.022447      0.029114      0.006131
Li	      4.33082      4.35393      4.10610        -0.005016     -0.012154      0.001170
Li	     10.59732      8.60983     10.28532         0.002340      0.047323     -0.025654
Li	      8.64193      6.66166     10.27308        -0.058419      0.019659     -0.005576
Li	      8.64105      8.65240      8.45926        -0.023070      0.062657     -0.038938
Li	      6.44780      6.44092      8.44571         0.011363      0.007111      0.040039
Ti	      6.54545      6.45326     12.29822         0.047790     -0.037121     -0.725539
Ti	      4.32541      2.11661      2.21025         0.164748     -0.172308      0.194896
Ti	      8.49457      4.43295      8.42507        -0.267198      0.393461     -0.004659
Ti	      6.38320      6.28822      4.11111         0.024579     -0.287588      0.162003
Ti	      2.14008      4.40359      6.21741        -0.058696      0.025145      0.098089
Mn	      4.38889      2.25263      6.21652        -0.015123      0.048013      0.014943
Cr	      8.59338      8.64185     12.37430         0.100531     -0.142755     -0.057441
Cr	      4.32825      6.44455      6.21769        -0.098213      0.043797      0.036969
Cu	      6.39450      4.24119      6.21842        -0.008916      0.056329     -0.011842
O	      2.21345      2.22935      2.09955        -0.004633      0.017397     -0.040541
O	      4.19044      4.10987      2.00761        -0.018746      0.015062      0.070844
O	      4.20215      2.17085      4.14624        -0.103675      0.024670     -0.185314
O	      6.43637      4.43703      4.17864        -0.039917      0.192476      0.087574
O	      6.56599      1.96114      6.27096         0.069566     -0.079830      0.025877
O	      8.77910      4.20670      6.33292         0.079773     -0.063607     -0.007432
O	      2.17778      4.22651      4.11004        -0.025575     -0.030677     -0.077609
O	      4.45877      6.42704      4.20878         0.031699      0.019961      0.045687
O	      4.11655      4.43991      6.26474        -0.068683      0.119918      0.002605
O	      6.36717      6.69105      6.14584        -0.043703      0.129728     -0.066265
O	      6.63349      4.29870      8.26575         0.266872     -0.045939     -0.150912
O	      8.64084      6.30357      8.30727         0.029791     -0.365424      0.081905
O	      2.23092      6.48400      6.20205         0.102802      0.057145      0.005426
O	      4.28513      8.56812      6.25605        -0.085466     -0.116785      0.004948
O	      4.31988      6.63278      8.22141         0.016388      0.101520     -0.012261
O	      6.35706      8.64883      8.20664        -0.104771      0.016615     -0.084191
O	      6.50535      6.41834     10.46795         0.009749     -0.013793      0.612298
O	      8.62645      8.62419     10.44024         0.004167      0.022051      0.070457
