# total energy = -257.12836663 eV
 
CRYSTAL
PRIMVEC
0.000226 6.295639 6.316327 
6.291527 0.005141 6.311326 
4.192906 4.192342 0.004905 
PRIMCOORD
36 1
Li	      2.14192      6.31207      8.39327         0.040504     -0.009150     -0.056010
Li	      4.17128      8.35643      8.39228         0.017917     -0.077925     -0.019992
Li	      4.20107      6.33155      2.18035        -0.001828      0.055518      0.067964
Li	      2.06904      4.16335      2.14796        -0.062023     -0.015384      0.025048
Li	      6.23318      6.31182      4.18523        -0.047523      0.012646     -0.032140
Li	      6.26947      4.26273      6.35571        -0.007882      0.040353      0.030900
Li	      2.14305      6.24306      4.21537         0.029730     -0.029095      0.049575
Li	      6.28361      8.39643      6.32088        -0.017951      0.019992      0.030376
Li	      4.21103      6.28339      6.33111         0.000812     -0.008738     -0.006039
Ti	      4.24500      4.18814      0.17566         0.060290      0.007048      0.226857
Ti	      2.08463      2.06260      0.16740        -0.010231     -0.032175      0.354760
Ti	      6.29713      8.41478     10.45663        -0.031730      0.013359     -0.200758
Ti	      4.11289      4.28593      4.15922        -0.124417     -0.014224     -0.015905
Ti	      8.29112      6.32574      6.32509        -0.159602     -0.036858     -0.249556
Mn	      4.08296      0.07436      4.15630        -0.057464      0.078887      0.052539
Cr	      0.07791      4.11966      4.20544         0.025812      0.038233     -0.083542
Cr	      4.21545      4.21082      8.37059         0.019371     -0.053054      0.007955
Fe	      6.28007      6.28951      8.39375        -0.114970     -0.070025      0.140732
O	      2.11961      2.09441      1.97165        -0.012059      0.017353     -0.373142
O	      4.18162      4.21219      2.10653        -0.001668      0.016543     -0.087867
O	      4.24526      2.19592      4.22386         0.018938      0.017944     -0.026204
O	      6.14843      4.10173      4.24036        -0.047071     -0.071594     -0.027283
O	      6.31319      2.04891      6.24656        -0.006613     -0.008491      0.002511
O	      8.44218      4.19374      6.34170         0.007931     -0.026892      0.021012
O	      2.13182      4.20335      4.19290         0.119098      0.005519      0.023058
O	      4.20798      6.26927      4.21614        -0.012484     -0.046287      0.029128
O	      4.20519      4.13685      6.31549         0.000011      0.020746      0.008506
O	      6.43942      6.26402      6.25835         0.345520      0.051754     -0.041472
O	      6.23074      4.17499      8.52156        -0.084889     -0.144371      0.020330
O	      8.38371      6.37149      8.30049        -0.047109      0.055352     -0.055645
O	      2.01528      6.38577      6.32849        -0.088466      0.074271      0.022374
O	      4.13606      8.44798      6.24903        -0.022355      0.004434      0.064389
O	      4.21672      6.20989      8.38730         0.119715     -0.039130     -0.096349
O	      6.35865      8.39888      8.48680         0.122988      0.139658      0.149470
O	      6.31703      6.26177     10.65545         0.035745      0.047466      0.029220
O	      8.44203      8.35344     10.47963        -0.006043     -0.033686      0.015202
