# total energy = -252.01841813 eV
 
CRYSTAL
PRIMVEC
-0.043313 6.388494 6.354259 
6.369391 -0.040713 6.351517 
4.217655 4.228453 0.001507 
PRIMCOORD
36 1
Li	      6.28166      6.40472      4.51373        -0.024232      0.050564     -0.017286
Li	      8.16418      6.51410      6.40322         0.019066      0.014124      0.034083
Li	      6.15512      4.50199      6.36957        -0.013113     -0.010002      0.041163
Li	      0.08104      4.19248      4.24985         0.102907     -0.046309      0.016575
Li	      2.10251      6.32032      4.24669         0.044652     -0.064037      0.027436
Li	      6.43371      8.23676      6.36423        -0.034247      0.082478     -0.007400
Li	      4.44149      6.22903      6.35385        -0.107911      0.027435     -0.012667
Li	      4.17698      4.23845      8.27769        -0.002175      0.012932     -0.032283
Li	      6.27500      6.42433      8.24108        -0.062759      0.022907      0.075176
Ti	     10.51771     10.55213     12.65964         0.148669     -0.128361     -0.137490
Ti	      8.45655      8.49533     12.63635         0.137967     -0.152271     -0.135128
Ti	      8.46478      4.18839      4.30114         0.094061     -0.080056     -0.085792
Ti	     10.51495      6.40380      8.56157        -0.152565      0.259575      0.261768
Ti	      8.43334      4.23690      8.49176        -0.100387      0.062316      0.103065
Mn	      2.18988      6.30059      8.37951         0.117669     -0.096037     -0.019130
Cr	      6.31005      8.46175     10.56783         0.030010     -0.024452     -0.092019
Cr	      4.21563      4.21305      4.33680        -0.072461      0.074441      0.130936
Ni	      4.27020      8.40601      8.47999        -0.086686      0.042059     -0.049813
O	      2.04925      2.18621      2.00986        -0.083520      0.053386     -0.093526
O	      4.17455      4.26324      2.11166        -0.049746      0.061374     -0.003573
O	      4.32514      2.09388      4.21411         0.064653     -0.040168      0.064797
O	      6.34730      4.09591      4.26943         0.076747     -0.070227      0.000861
O	      6.44347      1.98602      6.38343         0.060265     -0.053808     -0.013992
O	      8.46675      4.19100      6.39260        -0.016012     -0.003573      0.009938
O	      2.20349      4.22234      4.06736         0.052897      0.022016     -0.266273
O	      4.23751      6.24074      4.08246        -0.029036     -0.020757     -0.354994
O	      4.18540      4.25783      6.23733         0.011544     -0.021233     -0.014641
O	      6.29623      6.36885      6.36801         0.036766     -0.025014     -0.018007
O	      6.43739      4.08207      8.51760         0.093448     -0.259796      0.005713
O	      8.59482      6.23251      8.43602         0.213155     -0.107885      0.054392
O	      1.94393      6.51691      6.28414        -0.130788      0.125443      0.058289
O	      4.07869      8.60173      6.40713        -0.124316      0.137250     -0.126325
O	      4.23365      6.39650      8.66945        -0.001434     -0.092991      0.183621
O	      6.29169      8.44925      8.60538         0.086895     -0.020376      0.067021
O	      6.24650      6.41113     10.67048        -0.187304      0.111007      0.192028
O	      8.35592      8.53493     10.63245        -0.112679      0.158045      0.153476
