# total energy = -256.86851230 eV
 
CRYSTAL
PRIMVEC
0.017189 6.281111 6.392830 
6.279408 0.004801 6.405778 
4.202763 4.212288 -0.013947 
PRIMCOORD
36 1
Li	      2.15511      8.34363      6.32223         0.035645      0.000920     -0.001092
Li	      8.44236     10.44119     10.65034         0.001514     -0.037270     -0.005538
Li	      6.36157      8.33117     10.63321         0.011150     -0.020946     -0.028705
Li	      4.25638      6.25696      2.29017         0.003926      0.029912     -0.031759
Li	      4.19454      4.36391      4.18368        -0.054804     -0.068652     -0.014468
Li	      4.16660      8.29273      4.34498        -0.017137      0.055321      0.049146
Li	      2.24890      6.36445      4.29167         0.028667      0.006842      0.014680
Li	      4.14939      6.33944      6.24589         0.007048      0.051936      0.021339
Li	      6.28757      6.29135      8.64735         0.011094      0.025618      0.053305
Ti	      6.27746      6.33813     12.65953        -0.125590      0.032120     -0.487719
Ti	      4.23155      2.12726      6.32513         0.011090     -0.000744     -0.098637
Ti	      6.21977      4.09027      6.32079         0.040645     -0.068867      0.045636
Ti	      2.12325      4.20887      6.31902        -0.079025     -0.151312     -0.037590
Ti	      8.43964      8.44754      8.68789        -0.106954      0.018348      0.588566
Mn	      4.24217      8.31986      8.59870        -0.045200      0.015062      0.041360
Mn	      2.07773      4.26477      2.22634        -0.057445     -0.064085      0.036529
Cr	      6.20345      6.27663      4.27723         0.072873      0.141051     -0.155363
Co	      6.25326      4.23889      2.12739         0.146035     -0.214283      0.068127
O	      2.09454      2.08989      2.28900        -0.044703      0.295162      0.037001
O	      4.21415      4.22374      1.96827         0.186846      0.091463     -0.033958
O	      4.12330      2.10654      4.40887        -0.042706     -0.023661      0.190597
O	      6.24373      4.24743      4.40217         0.011705     -0.015162     -0.118930
O	      6.31496      2.10120      6.33233        -0.038738      0.053156     -0.012055
O	      8.35162      4.24525      6.40223         0.026606     -0.036608     -0.093962
O	      2.12490      4.11579      4.39804        -0.010754      0.027107      0.240455
O	      4.26609      6.31433      4.26072         0.003210     -0.018077      0.045896
O	      4.18043      4.21386      6.43278         0.043717     -0.021474      0.001626
O	      6.31659      6.29900      6.31707         0.002670      0.012469      0.007344
O	      6.17926      4.23617      8.33085        -0.131687      0.013613     -0.140750
O	      8.38618      6.43110      8.33974        -0.000803      0.035877     -0.090464
O	      2.04116      6.19210      6.37388        -0.013120      0.037465      0.213487
O	      4.33610      8.48533      6.39827         0.085258      0.064456     -0.074812
O	      4.14773      6.15826      8.56230        -0.087442     -0.050876     -0.054547
O	      6.42010      8.36373      8.38352         0.115092     -0.175401     -0.126252
O	      6.27966      6.30629     10.82078         0.019485     -0.047674      0.449242
O	      8.41698      8.37160     10.50472        -0.008169      0.007191     -0.497734
