# total energy = -253.61383784 eV
 
CRYSTAL
PRIMVEC
0.038570 6.258479 6.414546 
6.263809 0.012361 6.441131 
4.192519 4.207030 -0.008600 
PRIMCOORD
36 1
Li	      0.02467      0.01234      0.03011         0.053609     -0.006940      0.106166
Li	      8.37763      8.37965     12.75300         0.011390     -0.006030     -0.022895
Li	      2.15570      6.21527      8.50965         0.021492     -0.037500     -0.082027
Li	      8.25634      4.07597      4.34140        -0.050088     -0.079718     -0.008244
Li	      6.44328      8.43631     10.68763         0.019582      0.016640     -0.071768
Li	      8.36070      4.21152      8.55790         0.005803      0.067941      0.023418
Li	      6.31260      4.16119      6.38237        -0.045552     -0.048917     -0.012476
Li	      2.12870      4.25241      6.42912         0.010271      0.049096      0.019962
Li	      8.36073      8.41207      8.67212        -0.001301      0.001739      0.125403
Ti	      0.14533      2.13493      2.06415         0.086447      0.076583     -0.157396
Ti	      4.15929      2.18816      2.11171        -0.011083     -0.000849     -0.001703
Ti	      4.27432      4.14882      4.29832         0.012743     -0.059133     -0.101141
Ti	      8.35561      6.16487      6.36907         0.062066     -0.282299      0.022553
Ti	      6.28337      6.29823      8.61171        -0.045755      0.121363      0.324656
Mn	      4.20076      8.40625      4.35310         0.010768      0.075808      0.117014
Mn	      8.30513      6.36455     10.83669        -0.019970      0.011155      0.029949
Cr	      4.18480      6.23835      6.45749        -0.067382      0.029987     -0.030641
Cu	      2.19556      2.07726      4.24724         0.125859     -0.049872     -0.120150
O	      2.04907      2.12637      2.05979        -0.081762      0.027239     -0.011533
O	      4.19936      4.21821      2.16898        -0.007637      0.126886     -0.004352
O	      4.25805      2.13967      4.34858         0.015855     -0.088477      0.064016
O	      6.13644      4.18885      4.24355         0.014076      0.060387     -0.027742
O	      6.15436      2.09235      6.61676        -0.074126      0.024670      0.111730
O	      8.38238      4.37032      6.36922        -0.047421      0.266667     -0.001429
O	      2.21882      4.23389      4.24856         0.041733     -0.114512     -0.004590
O	      4.16809      6.23065      4.28719         0.053008     -0.070736     -0.007663
O	      4.20423      4.19077      6.29246         0.012552      0.009782     -0.143924
O	      6.33431      6.26748      6.60372         0.007875     -0.045670      0.057120
O	      6.30458      4.13314      8.56842        -0.010753     -0.110778     -0.001236
O	      8.34990      6.32933      8.41579        -0.080735     -0.025552     -0.121434
O	      2.24042      6.24494      6.47932        -0.005116     -0.001428      0.061039
O	      4.21611      8.28864      6.57514         0.029842     -0.025244      0.105571
O	      4.28871      6.33034      8.45656         0.040942      0.009147      0.001669
O	      6.13922      8.24814      8.58474         0.012525     -0.036498      0.001279
O	      6.26502      6.29103     10.50545        -0.045300      0.038850     -0.260637
O	      8.37828      8.39588     10.71465        -0.054455      0.076216      0.021438
