# total energy = -90.32307265 eV
 
CRYSTAL
PRIMVEC
-1.992779 3.966379 -1.990031 
1.967571 3.941002 1.964674 
2.017842 0.012658 -5.969762 
PRIMCOORD
16 1
Li	      0.07876      3.80759     -3.90715        -0.594110      0.014404     -0.389641
Li	      1.87402      5.70009     -3.80724         0.156729      0.790498     -0.388845
Li	      1.84276      3.80705     -5.65721         0.271209     -0.019316     -0.889412
Li	      1.92208      1.90499     -3.82207         0.045276     -0.805236     -0.142849
Mn	      3.79413      3.79761     -3.81141         4.423310      0.100650     -1.038512
Mn	     -0.00187      5.70055     -1.93413        -2.144321      2.479578     -0.564069
Ni	      0.01405      1.90648     -1.92554        -1.290107     -1.041774     -0.496623
Ni	      1.93322      3.79828     -1.95513         0.797685     -0.162747      2.037071
O	      0.00603      3.81721     -5.87031        -0.416552      0.028942     -1.074444
O	      1.76450      5.66801     -1.89576         2.658822      1.860221     -0.762560
O	      2.05604      3.80212     -3.82538        -2.029008     -0.039465     -1.533461
O	      1.87745      3.69702      0.04765         0.206911      0.030296      1.744341
O	      1.87104      1.92694     -1.79166         2.187332     -1.976367     -1.068136
O	      0.01946      5.81011     -0.12204        -1.310571      0.758596      2.503598
O	     -0.07364      3.89684     -1.90112        -1.440615     -0.995046     -0.280416
O	      0.10053      1.78463     -0.04245        -1.521989     -1.023236      2.343959
