# total energy = -253.53360914 eV
 
CRYSTAL
PRIMVEC
-0.023347 6.379742 6.405438 
6.367549 0.007300 6.374568 
4.243960 4.231882 0.006120 
PRIMCOORD
36 1
Li	      6.34869      6.39278     12.55799         0.001555      0.019821      0.080362
Li	      4.28857      8.42098      8.56549         0.010181     -0.064288     -0.005523
Li	      4.46320      6.42509     10.61473        -0.062185     -0.006510      0.054087
Li	      6.28122      8.25182     10.66248         0.001540      0.087939      0.028555
Li	      4.22061      4.22315      4.27481         0.001318     -0.005168      0.012249
Li	      6.34999      4.48840     10.64860        -0.029917     -0.079960      0.021892
Li	      8.21938      6.39173     10.67395         0.022365      0.023570      0.006147
Li	      4.20046      6.36457      6.40890        -0.005486      0.005674     -0.001934
Li	      6.30068      6.44199      8.77935        -0.030096      0.003558     -0.059627
Ti	      4.19119      6.30541      2.26009        -0.041938     -0.241250      0.135373
Ti	      2.22215      2.11915      4.33188         0.292747     -0.075855      0.321548
Ti	      6.35204      4.27919      6.27232         0.204676     -0.007571     -0.005328
Ti	      6.21377      8.55420      6.35740        -0.433091      0.187286     -0.015487
Ti	      8.46655      8.61006      8.65648         0.017584      0.221858      0.398990
Mn	      8.55617      8.45154     12.62085         0.062540      0.032966     -0.032118
Mn	      6.34831      4.20737      2.20680        -0.003536     -0.122623     -0.223926
Cr	      8.45335      4.29673      8.58117         0.049848      0.144430     -0.268833
Ni	      4.29041      2.12847      6.34558         0.006334     -0.083199     -0.063075
O	      2.04007      2.22134      2.17304        -0.023068      0.014612      0.168894
O	      4.22795      4.41789      2.11825        -0.001856      0.272215      0.014862
O	      4.10755      2.12918      4.25019        -0.314162     -0.004237     -0.120389
O	      6.27741      4.29778      4.33208        -0.099601      0.145609      0.031718
O	      6.37760      2.26805      6.47343         0.005644     -0.011144     -0.005617
O	      8.29121      4.28808      6.38205        -0.163521     -0.043264      0.021248
O	      2.14769      4.17665      4.41384         0.029446     -0.095596      0.078112
O	      4.39839      6.38354      4.11172         0.037765      0.027423     -0.176865
O	      4.29498      4.20018      6.47454        -0.029706      0.148758      0.004606
O	      6.37219      6.36700      6.34337        -0.105764      0.078472     -0.092067
O	      6.21756      4.16525      8.42293        -0.096502     -0.021239     -0.021642
O	      8.59461      6.37043      8.47913         0.171345      0.017141      0.106372
O	      2.14630      6.22552      6.39368        -0.008042     -0.251143      0.015085
O	      4.36125      8.44734      6.45571         0.403554      0.021799      0.021583
O	      4.22068      6.22917      8.52609         0.022021     -0.294136      0.023895
O	      6.49727      8.42754      8.36893         0.122307     -0.038817     -0.054563
O	      6.33982      6.38003     10.66772        -0.011071     -0.027899     -0.005405
O	      8.47407      8.45122     10.50169        -0.003231      0.020768     -0.393178
