# total energy = -258.54052174 eV
 
CRYSTAL
PRIMVEC
0.035500 6.300922 6.336611 
6.423988 0.018980 6.352987 
4.272825 4.201716 0.022373 
PRIMCOORD
36 1
Li	     10.49817      4.22417      6.52998         0.001107      0.007481     -0.065612
Li	      8.52813      2.29514      6.45712        -0.012232     -0.066341      0.014223
Li	      6.26089      4.24762      2.14120         0.030826      0.026744     -0.028858
Li	      4.23799      2.30735      2.11428         0.000722      0.036491     -0.020775
Li	      8.54477      4.18851      4.40556        -0.008651     -0.040561     -0.009767
Li	      2.28909      4.11059      1.92992         0.014481      0.048277      0.027884
Li	      4.30479      4.18752      4.02835        -0.016365     -0.006976     -0.001378
Li	      6.64502      4.12270      6.43358         0.031107      0.024669      0.050620
Li	      6.40414      6.26085      8.48998        -0.009012     -0.032928     -0.000658
Ti	      2.11333      6.24558      4.26090        -0.268687     -0.036859      0.023121
Ti	      6.35332      2.20978      4.29445        -0.030153      0.042568      0.061193
Ti	      2.27659      1.98477      4.14484         0.063391     -0.068216     -0.204165
Ti	      6.40709      8.45962      6.42833        -0.125679      0.002551     -0.084426
Ti	      4.32491      6.30262      6.47310         0.060999      0.008028      0.427023
Mn	      8.56984      6.16667      6.35816        -0.002803      0.032054      0.043078
Mn	      6.39731      4.31231     10.56987        -0.056621      0.009340     -0.001441
Cr	      0.04800      2.05214      2.05821        -0.056148      0.028565     -0.037199
Cr	      8.56699      8.41204      8.48038         0.025093      0.011007      0.031471
O	      2.06156      2.11581      2.24452         0.036516     -0.033470      0.241569
O	      4.29479      4.31931      2.09757         0.028659     -0.038392     -0.012577
O	      4.27445      2.10632      4.15900        -0.014601      0.016412     -0.069187
O	      6.43106      4.21308      4.24996        -0.013979     -0.007701     -0.022878
O	      6.44102      2.13982      6.31591         0.069501     -0.007799     -0.129851
O	      8.57832      4.16848      6.34765        -0.010948     -0.011119     -0.008858
O	      2.19298      4.18345      4.34333         0.086881      0.012218      0.066430
O	      4.29101      6.26457      4.23178        -0.039033     -0.038261      0.086576
O	      4.18888      4.25745      6.43153        -0.100658      0.088022      0.028804
O	      6.33936      6.37921      6.27261        -0.124120      0.069167     -0.050290
O	      6.29161      4.13696      8.46496        -0.024465     -0.013128     -0.010521
O	      8.66413      6.37575      8.57775        -0.001375      0.053500      0.153243
O	      2.33182      6.29581      6.24758         0.185910      0.009288     -0.035634
O	      4.41255      8.31774      6.39805         0.138445     -0.085445      0.017161
O	      4.33298      6.21558      8.33432         0.001802     -0.008241     -0.449205
O	      6.49880      8.42345      8.46559         0.032228      0.014165     -0.057493
O	      6.59557      6.43677     10.55376         0.197928      0.043989      0.036720
O	      8.49311      8.34940     10.50517        -0.090064     -0.089099     -0.008343
