# total energy = -259.42812391 eV
 
CRYSTAL
PRIMVEC
0.016284 6.309869 6.416578 
6.298442 0.024929 6.407946 
4.240502 4.242110 -0.024990 
PRIMCOORD
36 1
Li	     10.46912      4.29796      6.37257         0.042631      0.046492      0.021403
Li	      8.35383      2.29301      6.36439        -0.032043      0.028258      0.026450
Li	      8.44706      4.25160      4.36310        -0.009831      0.018712      0.004882
Li	     10.44443      6.39095      8.52535         0.052192      0.004610      0.018621
Li	      4.21773      4.23721      4.24964        -0.003080     -0.018625      0.008453
Li	      6.42955      4.17465      6.43699         0.008398      0.008266     -0.025849
Li	      8.44589      6.38392     10.50954         0.038421      0.002767     -0.067716
Li	      8.49146      8.35516      8.51347         0.026009      0.047631     -0.038299
Li	      6.43444      6.31001      8.57452         0.022334      0.013656     -0.019276
Ti	      6.30962      4.25539      2.16859         0.007216      0.030178      0.010928
Ti	      6.42641      8.37674     10.72706         0.164935     -0.039836      0.265914
Ti	      6.31832      6.26396      4.22255        -0.150563     -0.080556     -0.080681
Ti	      6.17853      4.35789     10.60684        -0.017435      0.093257     -0.399261
Ti	      2.13458      4.28156      6.39968         0.150224      0.171264     -0.032090
Mn	      4.23936      8.42268      8.52527        -0.066077     -0.028595     -0.022330
Mn	      8.45330      4.30827      8.47905         0.024190     -0.033182     -0.019781
Mn	      4.26240      6.26743      6.42912        -0.043460     -0.043060      0.068510
Cr	      8.46917      6.32640      6.40127         0.070037     -0.025118      0.006054
O	      2.07333      2.07087      2.23095        -0.016032     -0.073012      0.077898
O	      4.36567      4.24054      2.16063         0.152814     -0.001506      0.029320
O	      4.19632      2.10697      4.32417        -0.058046      0.010644      0.040942
O	      6.32119      4.22833      4.21843        -0.003403      0.061722     -0.009186
O	      6.26609      2.15577      6.20067        -0.014789     -0.033333     -0.306910
O	      8.42719      4.33604      6.38908         0.012771     -0.011102     -0.021779
O	      2.03689      4.16470      4.39706        -0.071744      0.039559      0.128852
O	      4.37438      6.45322      4.27958         0.097321     -0.029618     -0.017358
O	      4.07986      4.14456      6.37169        -0.225634     -0.025898      0.008550
O	      6.42353      6.41316      6.30396        -0.003411     -0.005443     -0.038162
O	      6.28944      4.26983      8.75947        -0.030291     -0.003305      0.385190
O	      8.47473      6.37949      8.39161        -0.004539      0.020010      0.041796
O	      2.09616      6.19632      6.51439        -0.020526     -0.152894      0.020468
O	      4.35309      8.44988      6.29334         0.125210      0.015011     -0.102935
O	      4.04007      6.31933      8.54401        -0.152530     -0.024833      0.032853
O	      6.37206      8.47248      8.52098        -0.027787     -0.016384      0.028081
O	      6.32861      6.35862     10.65259        -0.002319     -0.002263      0.020808
O	      8.43057      8.43964     10.71478        -0.041165      0.036526     -0.044362
