# total energy = -245.26477154 eV
 
CRYSTAL
PRIMVEC
0.057729 6.271276 6.272512 
6.327963 0.038668 6.291841 
4.241225 4.216389 0.003078 
PRIMCOORD
36 1
Li	      6.34174      4.19637      2.15261        -0.011015     -0.032983      0.046082
Li	      4.41931      6.30291     10.42592        -0.072376      0.013145     -0.044263
Li	      6.41202      8.23738     10.46549        -0.057383      0.057006      0.000421
Li	     10.45402      6.30053      8.41152         0.013596     -0.021640      0.038104
Li	      4.27655      4.20439      4.09534         0.029938     -0.015566     -0.000122
Li	      8.52291      6.30582      6.35587        -0.040114      0.038299      0.013867
Li	      8.34311      6.37304     10.32945         0.044393      0.011196      0.015030
Li	      8.49253      8.33142      8.49319         0.012148     -0.024227      0.025590
Li	      6.44074      6.33846      8.55288        -0.005355     -0.004167     -0.135582
Ti	      8.48912      8.35680     12.43676        -0.126957     -0.122505     -0.361227
Ti	      4.34156      8.28254      8.44608         0.102097     -0.266987      0.200587
Ti	      6.28640      6.26038      4.18924        -0.287193     -0.255895      0.175081
Ti	      6.29937      4.21812      6.37282        -0.203937      0.051558     -0.003519
Ti	      2.31708      4.34658      6.28322         0.371190      0.149952      0.019230
V	      8.49263      4.33982      8.40750        -0.053975     -0.081416      0.036783
Co	      4.30809      6.22553      6.28234        -0.001918     -0.136778     -0.061741
Cu	      6.28598      0.19160      6.18949         0.086964      0.154189      0.070533
Ni	      6.34849      4.32624     10.43486        -0.058229     -0.218449     -0.118610
O	      2.19880      2.13919      2.10601         0.021942     -0.024074      0.022343
O	      4.13711      4.07288      2.07476         0.067473      0.056914     -0.106120
O	      4.12646      2.13938      4.05656        -0.036348     -0.055310     -0.222434
O	      6.29355      4.37149      4.34324         0.031366      0.240706     -0.054915
O	      6.46543      2.28902      6.27580         0.017843      0.058477      0.040294
O	      8.29574      4.10193      6.34472         0.034463      0.013368     -0.060132
O	      2.13846      4.16718      4.30761         0.136669     -0.008386      0.023555
O	      4.42176      6.40907      4.10255         0.298619     -0.103818     -0.040094
O	      4.25428      4.15196      6.32252        -0.094767     -0.102666      0.003603
O	      6.44022      6.34953      6.16273         0.149453      0.058897     -0.065240
O	      6.39919      4.25902      8.28910         0.017373     -0.007329     -0.046830
O	      8.50562      6.21706      8.36596        -0.053069      0.172810      0.025602
O	      2.21822      6.28811      6.29509        -0.075736     -0.143710      0.021750
O	      4.24291      8.32591      6.32179         0.001357      0.158259      0.091834
O	      4.23801      6.43192      8.39870         0.010751      0.209217      0.079246
O	      6.29846      8.42933      8.20197        -0.119677     -0.037287     -0.026516
O	      6.36644      6.29315     10.46210         0.024500      0.202615      0.118898
O	      8.53450      8.39542     10.60757        -0.174083      0.016585      0.278912
