# total energy = -244.21510184 eV
 
CRYSTAL
PRIMVEC
0.015900 6.212524 6.255847 
6.329529 -0.023682 6.295517 
4.195879 4.144310 0.008004 
PRIMCOORD
36 1
Li	      4.24244     10.26418      6.30629         0.066373     -0.146429      0.168097
Li	      6.35986      8.26797     10.46739        -0.038055      0.006321     -0.047130
Li	      0.08096      2.05763      2.13106         0.098727     -0.104769      0.033323
Li	      2.14178      4.04665      2.14530         0.105322     -0.157382      0.035991
Li	      2.02936      2.15492      4.11305        -0.011297      0.046824     -0.122268
Li	      4.26778      8.22210      4.29632         0.017564     -0.047771      0.133703
Li	      6.16977      8.28591      6.23324        -0.168193      0.051115      0.022736
Li	      4.21270      6.31333      6.20699        -0.081175      0.129538      0.002678
Li	      8.42361      8.25251      8.38171        -0.034285      0.105017     -0.015067
Ti	      2.17268      6.14036      4.24283         0.499160     -0.399994      0.542599
Ti	      4.29425      6.10599     10.41923        -0.068384      0.248982     -0.731784
Ti	      4.26676      2.06938      6.31586         0.169474      0.150294     -0.266063
Ti	      6.28779      4.12148      6.32020        -0.133250     -0.052889      0.192790
Ti	      6.30034      6.29051      8.39405        -0.672416      0.973851      0.012672
V	      6.27813      4.13053      2.09008        -0.178545      0.043242     -0.102588
Co	      4.20388      8.31615      8.25714         0.533683     -0.644000      0.557379
Ni	      2.17663      8.27443      6.28547         0.075174     -0.117262      0.213460
Ni	      4.18601      4.14829      4.15840         0.005468     -0.077560     -0.198765
O	      2.08459      1.96452      2.07514        -0.210969      0.096325      0.072661
O	      4.31522      4.11237      2.17620        -0.072109      0.445434     -0.290030
O	      4.22532      1.95827      4.30231         0.029047     -0.111891      0.691574
O	      6.38436      4.13302      4.23497         0.138773     -0.023127      0.437730
O	      6.26028      2.13208      6.32814        -0.332633      0.290368     -0.015365
O	      8.36125      4.16425      6.23661        -0.072876      0.352933     -0.039665
O	      2.11736      4.26589      4.15984        -0.127132      0.420778      0.011945
O	      4.05484      6.21706      4.16168        -0.453227      0.092868      0.008505
O	      4.30240      4.05632      6.20476         0.317070     -0.302690      0.228806
O	      6.39621      6.16557      6.33821         0.141433     -0.253061      0.085947
O	      6.31807      4.27264      8.23193        -0.019933     -0.008050     -0.511010
O	      8.34341      6.21583      8.35755        -0.013434     -0.017296     -0.186564
O	      2.08460      6.22724      6.19112        -0.000274     -0.122655     -0.608007
O	      4.17518      8.27901      6.29115         0.005967      0.095215     -0.293452
O	      4.21904      6.17908      8.39469         0.215667     -0.613019      0.214960
O	      6.36930      8.24887      8.35805         0.384864     -0.504690      0.002531
O	      6.34273      6.20196     10.40765        -0.076108     -0.000643     -0.140349
O	      8.43580      8.30870     10.48315        -0.039469      0.156075     -0.101979
