# total energy = -248.97975017 eV
 
CRYSTAL
PRIMVEC
0.020292 6.343953 6.333724 
6.274970 0.025757 6.328272 
4.201238 4.243464 -0.000619 
PRIMCOORD
36 1
Li	      4.14344      4.19444      0.06878        -0.057648      0.024058      0.008447
Li	      8.44365      2.26868      6.33009         0.079607      0.102588     -0.031187
Li	      4.16285      2.16930      2.07453         0.012830      0.017439     -0.059525
Li	      8.36501      4.25340      4.25561         0.033311     -0.060190      0.025716
Li	      8.41344      4.22938      8.36518        -0.006241      0.040494     -0.020592
Li	      4.23058      4.21165      4.22245         0.048113     -0.024920     -0.044634
Li	      6.26989      4.26589      6.32754        -0.006260      0.005987      0.006750
Li	      4.23903      6.34724      6.37676         0.057159      0.039987      0.042780
Li	      4.21453      4.25388      8.38369        -0.016111     -0.025473      0.026213
Ti	      2.13475      6.36671      4.28995        -0.148734      0.090403      0.058507
Ti	      2.19352      0.02510      2.20333         0.157118     -0.014287      0.249878
Ti	      6.30760      2.14744      8.38252         0.094419     -0.060597     -0.229943
Ti	      8.35646      6.26953      6.19500        -0.065871     -0.500982     -0.152168
Ti	      2.11101      4.26118      6.33184        -0.131398     -0.039097      0.062262
V	      4.19582      8.46605      4.24567        -0.075930      0.170666      0.037571
Co	      6.33495      8.48337     10.57918         0.039486     -0.023601      0.007749
Co	      6.18440      6.32707      8.45911        -0.027144     -0.036613      0.024138
Cu	      2.18122      2.04056      4.17522         0.150375     -0.084062     -0.110070
O	      2.00503      2.04344      1.99829        -0.097977     -0.011146      0.071902
O	      4.33022      4.40876      2.10977         0.051784      0.138134      0.015759
O	      4.27043      2.12733      4.31994        -0.095719      0.036401      0.217564
O	      6.30679      4.16411      4.09560        -0.020609      0.113608     -0.271916
O	      6.14022      2.19939      6.44927        -0.046631     -0.065016      0.108496
O	      8.36202      4.41302      6.32641         0.002526      0.448567     -0.023934
O	      2.04825      4.35563      4.28092         0.038543      0.086779      0.075602
O	      4.08303      6.37827      4.13839        -0.124321     -0.085641      0.010053
O	      4.04654      4.12021      6.31530        -0.136488     -0.024054     -0.013350
O	      6.35829      6.43479      6.44965         0.039385      0.127586     -0.031229
O	      6.29132      4.14145      8.51614        -0.036885     -0.090268     -0.004693
O	      8.45054      6.36563      8.49218         0.145308      0.001588      0.013744
O	      2.12465      6.28601      6.29832         0.021774     -0.086528     -0.022849
O	      4.33415      8.47325      6.27612         0.164524      0.043370     -0.003395
O	      4.11050      6.37460      8.44003        -0.304818      0.001313     -0.012507
O	      6.25985      8.60728      8.35326         0.060745      0.009806     -0.061565
O	      6.38687      6.36933     10.50686         0.201059     -0.046255      0.065802
O	      8.40498      8.38411     10.60475         0.000717     -0.220044     -0.035376
