# total energy = -246.84484355 eV
 
CRYSTAL
PRIMVEC
0.018442 6.268144 6.329504 
6.272765 0.019758 6.328597 
4.191746 4.187827 0.003167 
PRIMCOORD
36 1
Li	      6.28783      0.09554      6.38631        -0.016857      0.049584      0.055723
Li	      2.11156      6.30037      8.38731         0.012692      0.072546     -0.059683
Li	      4.22744      8.32670      8.41098        -0.024066     -0.035790      0.001821
Li	      4.16525      0.09563      4.22713         0.008528      0.042550     -0.014259
Li	      6.26943      2.10348      8.30284         0.017653     -0.016209     -0.042455
Li	      8.35525      6.26554      6.34871        -0.019850     -0.046553     -0.049725
Li	      6.30626      4.21291      6.33416         0.059812     -0.054382     -0.053789
Li	      6.25051      8.26658      6.42707        -0.018566     -0.048752      0.041143
Li	      6.28310      6.30144      8.29127        -0.017261     -0.013365     -0.109500
Ti	      2.06947      6.25676      4.27525        -0.005816      0.148961      0.309330
Ti	      8.34801      4.14251      8.29448         0.056585     -0.465199     -0.573593
Ti	      4.26417      4.14241      4.20025         0.215674     -0.112840     -0.174556
Ti	      0.04012      4.26985      4.28785        -0.162538      0.148509      0.131908
Ti	      4.09133      4.28529      8.28135        -0.207984      0.310639      0.071962
V	      6.32965      8.31751     10.57963         0.080645      0.110989      0.304308
Co	      2.02261      2.08591      0.06870         0.006243      0.164243     -0.221893
Co	      4.29779      6.28660      6.38098        -0.102820      0.076328     -0.003996
Ni	      6.33916      6.23030      4.28745         0.011670     -0.054602     -0.113531
O	      2.11551      2.23242      2.20105        -0.022877      0.152298      0.026048
O	      4.05022      4.20829      2.28809        -0.010931      0.039208      0.138272
O	      4.21126      2.22169      4.23208         0.003932      0.069862      0.031191
O	      6.14724      4.17489      4.19336        -0.102841      0.016596      0.033789
O	      6.33407      2.10614      6.31295         0.444881     -0.064573     -0.016765
O	      8.38792      4.20702      6.47246        -0.098221     -0.095925      0.196657
O	      2.08886      4.20024      4.17719        -0.054325      0.104406      0.126017
O	      4.17435      6.28170      4.21758        -0.062007     -0.037187     -0.008337
O	      4.17677      4.16766      6.36236         0.018375     -0.060715      0.025248
O	      6.25979      6.26333      6.26734         0.007653     -0.028307      0.137332
O	      6.34188      4.20569      8.57163        -0.032385     -0.015451      0.023535
O	      8.37135      6.26657      8.58249         0.025039      0.032531     -0.031327
O	      2.15735      6.28517      6.18881        -0.166564      0.131941     -0.083489
O	      4.14814      8.38608      6.18838        -0.174112     -0.087241      0.074470
O	      4.19588      6.14313      8.46615         0.000796     -0.281100     -0.045757
O	      6.43019      8.36558      8.42330         0.194727     -0.008164      0.021710
O	      6.29557      6.24575     10.57172         0.028047     -0.168838      0.008046
O	      8.46022      8.33467     10.40941         0.107070      0.024002     -0.155854
