# total energy = -244.00543775 eV
 
CRYSTAL
PRIMVEC
-0.006223 6.337339 6.360084 
6.331203 -0.036466 6.390534 
4.195245 4.219477 0.001232 
PRIMCOORD
36 1
Li	      4.20419      6.35553     10.54146        -0.037666     -0.082654      0.020583
Li	      6.27114      8.42683     10.56828         0.048120      0.050889      0.052333
Li	      6.30111      6.29294      4.32194         0.010525     -0.036333      0.028525
Li	      4.23496      4.21771      4.29558         0.024284      0.005546     -0.014431
Li	      6.22245      4.29066      6.30360         0.037056     -0.008199     -0.027023
Li	      6.36161      4.19486     10.60194        -0.026116      0.002379     -0.008528
Li	      4.33340      6.21961      6.35687         0.056647     -0.034576     -0.010610
Li	      4.23435      4.24883      8.48909         0.018353      0.036242     -0.007089
Li	      6.21737      6.32490      8.51351        -0.046745     -0.041223     -0.029442
Ti	      6.32415      6.30234     12.58602        -0.083380     -0.001324     -0.340690
Ti	      8.44717      8.41360     12.60425         0.068871      0.007026     -0.507913
Ti	      6.45518     10.44106      8.65277         0.174564     -0.064739      0.431468
Ti	      4.15549      6.39217      2.32732        -0.019096      0.161700      0.238627
Ti	      4.06849      2.27288      6.26999        -0.142216      0.203055     -0.243491
V	      2.10181      4.18352      2.26361        -0.045703     -0.006187     -0.097667
Cu	      4.32578      8.29159      8.71589         0.072546     -0.099058      0.139859
Cu	      8.40741      6.32444     10.54799        -0.059038      0.102729     -0.129375
Ni	      2.09315      4.21454      6.29500        -0.013808     -0.014613      0.022330
O	      1.95144      2.06566      2.03565        -0.141264      0.009796     -0.008136
O	      4.15250      4.35731      2.05306         0.047204      0.090709     -0.066131
O	      4.24116      2.03682      4.46022        -0.082094      0.056511      0.333036
O	      6.30470      4.19866      4.11224         0.027074     -0.029522     -0.365501
O	      6.37811      1.98304      6.39286        -0.014035     -0.099340      0.169160
O	      8.52034      4.09400      6.51086         0.085561      0.025559     -0.057773
O	      2.11180      4.18349      4.20470        -0.015398      0.107476     -0.020076
O	      4.22385      6.33862      4.14631        -0.060916     -0.009386     -0.274762
O	      4.19563      4.12648      6.34230         0.011771     -0.311664      0.024803
O	      6.39641      6.34477      6.39448         0.265352     -0.030099     -0.008916
O	      6.41444      4.06289      8.48594        -0.016639     -0.223522      0.075268
O	      8.53951      6.23705      8.30186         0.073174      0.033389     -0.027940
O	      1.97268      6.42410      6.53388        -0.049651      0.064655      0.061364
O	      4.09659      8.57018      6.34022        -0.144932      0.145412     -0.058783
O	      4.11425      6.26851      8.48627        -0.213384     -0.026923     -0.030253
O	      6.33039      8.56295      8.38531         0.034657      0.133628      0.076176
O	      6.28402      6.32627     10.76399         0.116757     -0.058574      0.316958
O	      8.39666      8.42380     10.79698         0.039565     -0.058763      0.344041
