# total energy = -243.78730190 eV
 
CRYSTAL
PRIMVEC
-0.000606 6.273446 6.238794 
6.341509 -0.003497 6.241702 
4.238027 4.194333 -0.012397 
PRIMCOORD
36 1
Li	      2.14246      2.13179      0.04983         0.017809      0.017248      0.012819
Li	      4.21058      8.32485      8.29662         0.001636      0.004007      0.019570
Li	      8.50791     10.45331     10.42621         0.006371     -0.021614     -0.007395
Li	      8.38357      4.16301      8.26833         0.020757     -0.008655      0.031080
Li	      8.50440      6.22337      6.29445        -0.020654     -0.034123      0.019311
Li	      6.46791      4.14073      6.28528         0.072642      0.039013     -0.014080
Li	      6.32109      4.22376     10.39852         0.001878      0.043728     -0.011595
Li	      6.29701      8.40708      6.27983        -0.016658     -0.018150     -0.022004
Li	      4.24180      4.18567      8.23776        -0.012035      0.028885     -0.040880
Ti	      4.10828      4.07835      0.17652        -0.136082     -0.136019     -0.061812
Ti	      6.39818      8.39532     10.37326         0.075268      0.112145      0.006789
Ti	      4.22165      4.13676      4.33954        -0.102880     -0.030337      0.338101
Ti	      8.50950      6.33766     10.35439        -0.013003      0.042561      0.044428
Ti	      6.26480      6.18563      8.13389        -0.201292     -0.200805     -0.123774
V	      2.12608      2.09812      4.12902         0.123738     -0.028837      0.339201
Cu	      2.21912      6.27280      8.20339        -0.033566      0.007220     -0.036942
Cu	      6.36266      2.23779      8.14498         0.098457     -0.028931      0.010334
Cu	      4.15483      6.38370      6.36921         0.038662      0.022903      0.014318
O	      2.14065      2.05646      2.24370        -0.046741      0.073336     -0.240542
O	      4.27716      4.16894      2.04588        -0.116621      0.013314      0.028100
O	      4.29940      2.20866      4.16001        -0.165727      0.030437     -0.016488
O	      6.25491      4.16371      4.27613        -0.072248     -0.192610     -0.002192
O	      6.33622      1.97833      6.06718         0.056424      0.010140      0.042738
O	      8.61250      4.17394      6.22544         0.196345      0.004043      0.024142
O	      2.23924      4.16339      4.13743         0.150649      0.257351     -0.008824
O	      4.16400      6.21905      4.15708         0.045094     -0.006797     -0.140094
O	      4.20191      4.18159      6.13099        -0.047692     -0.024055     -0.245557
O	      6.40320      6.29166      6.23811         0.125427     -0.000542     -0.062028
O	      6.32116      4.33409      8.30626         0.033020      0.020176      0.013101
O	      8.30524      6.26976      8.43724        -0.029380     -0.054583     -0.029634
O	      1.96172      6.24897      6.00940        -0.158856     -0.029409     -0.074180
O	      4.22618      8.50746      6.18270        -0.019856      0.163679      0.057603
O	      4.34697      6.27124      8.37589         0.212410      0.050589      0.135617
O	      6.33718      8.27448      8.43965         0.005140     -0.053628      0.002617
O	      6.42231      6.37521     10.34925         0.038482      0.019473      0.012585
O	      8.35085      8.26321     10.36911        -0.126919     -0.091155     -0.014430
