# total energy = -248.69562050 eV
 
CRYSTAL
PRIMVEC
0.013096 6.431585 6.316902 
6.277200 -0.020874 6.351164 
4.174752 4.300227 -0.003624 
PRIMCOORD
36 1
Li	      8.31405      8.57445     12.52751         0.009832      0.025650      0.041736
Li	      2.14065      6.43764      8.40916         0.023705      0.032465     -0.004342
Li	      6.18469      2.16531      8.36775        -0.021912      0.022382     -0.001520
Li	      8.33708      4.30889      8.39095        -0.048437     -0.014022      0.000450
Li	      8.44740      6.38755      6.41052        -0.004593      0.031144      0.007003
Li	     10.27577      8.51509     10.56349         0.105551     -0.075195      0.017408
Li	      8.41505      6.59151     10.52463         0.058663     -0.020061     -0.020506
Li	      4.14108      6.47934      6.32565        -0.006380      0.010918     -0.003309
Li	      8.42326      8.51782      8.59422        -0.003781     -0.061504      0.006485
Ti	      4.13947      8.47852      8.35624        -0.184680     -0.318849     -0.032011
Ti	      6.24614      6.42364      4.23326        -0.065615     -0.021872     -0.022395
Ti	      4.13137      4.36437      4.14479         0.084151      0.102942     -0.072599
Ti	      2.17125      4.41027      6.34536         0.048601      0.184688     -0.075596
Ti	      6.42714      6.34529      8.58772         0.186326     -0.140386      0.127403
V	      6.34606      4.26394      6.37292         0.049319     -0.066991      0.019467
Fe	     10.35642      4.35480      6.36786         0.086124      0.023463      0.001483
Co	      6.40876      8.56030     10.59960        -0.013056     -0.170492      0.052993
Cu	      8.46606     10.50536     10.60364         0.002522     -0.175433     -0.038103
O	      2.20731      2.10372      2.26873         0.189670      0.003529      0.118442
O	      4.17740      4.17922      2.21815        -0.028215     -0.042011      0.149276
O	      4.16137      2.30379      4.11628         0.019334      0.134504     -0.053185
O	      6.13224      4.38592      4.31115        -0.142509      0.062980     -0.069034
O	      6.27364      2.19673      6.34148         0.037929      0.242010     -0.078029
O	      8.30874      4.29603      6.39642        -0.209296      0.008397     -0.043131
O	      2.11695      4.13761      4.34999         0.060141     -0.040480      0.058954
O	      4.25786      6.32807      4.13796         0.055337     -0.048690      0.033576
O	      4.15470      4.30947      6.21676        -0.057848     -0.005630     -0.053037
O	      6.29276      6.47449      6.25379        -0.004405     -0.048533     -0.019622
O	      6.22691      4.43932      8.35480         0.016322      0.180029      0.039926
O	      8.23797      6.41620      8.42711        -0.211334     -0.001440      0.035286
O	      2.05788      6.24160      6.35718         0.062475     -0.189950      0.011660
O	      4.27010      8.58715      6.42743         0.028529     -0.057755      0.144111
O	      4.26881      6.60561      8.38402        -0.019137      0.286179      0.039085
O	      6.23012      8.46963      8.35860         0.009931     -0.019393     -0.119236
O	      6.37881      6.40319     10.45022        -0.015648      0.128806     -0.267492
O	      8.36551      8.48598     10.54649        -0.097617      0.038602      0.068402
