# total energy = -91.00819634 eV
 
CRYSTAL
PRIMVEC
-2.003158 3.987038 -2.000396 
1.977818 3.961528 1.974906 
2.028352 0.012724 -6.000854 
PRIMCOORD
16 1
Li	      0.07958      3.84735     -3.94795        -0.499842      0.015593     -0.330333
Li	      1.89359      5.75963     -3.84700         0.132935      0.666550     -0.314580
Li	      1.86201      3.84681     -5.71629         0.226975     -0.020373     -0.755091
Li	      1.94216      1.92489     -3.86199         0.037333     -0.675662     -0.109889
Mn	      3.83375      3.83727     -3.85121         3.730747      0.087073     -0.932699
Mn	     -0.00189      5.76009     -1.95433        -1.762691      2.109751     -0.456243
Ni	      0.01420      1.92638     -1.94565        -1.048855     -0.868475     -0.379195
Ni	      1.95341      3.83795     -1.97555         0.629316     -0.142923      1.742745
O	      0.00610      3.85708     -5.93162        -0.323331      0.024085     -0.976045
O	      1.78293      5.72720     -1.91556         2.197285      1.589221     -0.689682
O	      2.07752      3.84182     -3.86533        -1.639233     -0.034852     -1.314888
O	      1.89706      3.73563      0.04814         0.170715     -0.000477      1.549566
O	      1.89058      1.94706     -1.81037         1.852654     -1.704267     -0.914657
O	      0.01966      5.87079     -0.12332        -1.155079      0.678342      2.110294
O	     -0.07441      3.93754     -1.92098        -1.236405     -0.812737     -0.243276
O	      0.10159      1.80327     -0.04290        -1.312525     -0.910851      2.013974
