# total energy = -247.35076154 eV
 
CRYSTAL
PRIMVEC
-0.006811 6.403130 6.300914 
6.266826 0.034755 6.260365 
4.215231 4.277910 -0.013344 
PRIMCOORD
36 1
Li	      8.36848      2.21215      6.28521        -0.014962      0.025267     -0.021172
Li	     10.41485      6.49068      8.37739         0.013047      0.007131      0.014071
Li	      8.34086      4.38519      8.35983         0.024354      0.020679     -0.008957
Li	      6.25459      6.45760      4.17466        -0.042195      0.020364      0.008613
Li	      4.09684      4.33209      4.14441        -0.084951      0.024249     -0.013005
Li	      8.41782      6.41159     10.32755         0.009422     -0.003049     -0.020630
Li	      2.08330      4.27303      6.25355         0.048627     -0.029799      0.033800
Li	      8.40248      8.40517      8.36225        -0.024904     -0.082336      0.015987
Li	      6.40249      6.44342      8.33832         0.017388      0.019395      0.020247
Ti	      0.18421      6.42014      6.33622         0.089594      0.091121      0.110140
Ti	      6.39978      8.72597     10.37394         0.035054      0.193128     -0.167283
Ti	      4.02369      2.17546      2.11265        -0.214364      0.168643     -0.041344
Ti	      0.14295      4.25420      4.08207         0.302051     -0.124034     -0.312477
Ti	      4.33044      6.21805      6.29925         0.072312     -0.173541     -0.112464
V	      8.36585      6.44130      6.31391        -0.063179      0.054731     -0.021965
Fe	      8.35724     10.64214     10.40956         0.101673      0.121850     -0.049028
Cu	      2.03453      0.11039      2.05738        -0.095673      0.128214      0.005766
Cu	      6.32608      4.32331      6.45925         0.008966      0.065757      0.078794
O	      2.19735      2.19407      2.13069         0.226076     -0.023445     -0.023457
O	      4.13672      4.13109      1.97674        -0.020088     -0.104120     -0.026489
O	      4.26531      2.16872      4.11370         0.016421      0.021292     -0.007312
O	      6.23214      4.17086      4.24382         0.002215     -0.269688      0.008569
O	      6.26938      1.97383      6.16759         0.070051     -0.153292     -0.096013
O	      8.52872      4.44235      6.15760         0.013429     -0.116410      0.063117
O	      1.95510      4.27981      4.18360        -0.314277      0.009148      0.001905
O	      4.18208      6.56260      4.37680         0.007809      0.072417      0.084908
O	      4.08627      4.35086      6.26404         0.027722      0.103786      0.023959
O	      6.20484      6.47483      6.25714        -0.132248      0.018248      0.034058
O	      6.23835      4.27340      8.52888         0.024532     -0.007430      0.300738
O	      8.40191      6.43906      8.19420        -0.007892     -0.003529      0.064326
O	      2.06911      6.40438      6.24090        -0.060098     -0.024742     -0.027670
O	      4.18667      8.60294      6.36818         0.021908      0.018646     -0.022747
O	      4.25214      6.54234      8.26060         0.042382     -0.027560     -0.084885
O	      6.18275      8.45667      8.54360         0.032432      0.001212      0.228802
O	      6.28643      6.32009     10.59239         0.071881     -0.006402     -0.026172
O	      8.30713      8.54826     10.44868        -0.204515     -0.035902     -0.014730
