# total energy = -246.13747251 eV
 
CRYSTAL
PRIMVEC
-0.016255 6.330687 6.257679 
6.281185 0.015584 6.226215 
4.198364 4.210100 -0.000510 
PRIMCOORD
36 1
Li	      0.04633      0.06687      0.04047         0.090206      0.036146     -0.032131
Li	      2.07055      2.04773      0.07268        -0.046782     -0.032900      0.051994
Li	      6.22711      4.23992      2.08629        -0.054561     -0.012863      0.010522
Li	      4.18073      2.14310      2.11385        -0.005799     -0.005524      0.055784
Li	      6.20858      2.17087      4.13513        -0.102132      0.059555     -0.014797
Li	      4.23649      6.24410      2.06839         0.036733     -0.079755      0.021450
Li	      4.24457      4.15546      4.10322         0.009896     -0.055047     -0.048737
Li	      4.22607      2.11033      6.17220        -0.005659     -0.052449     -0.074860
Li	      4.15366      4.27214      8.31489        -0.026472      0.115059      0.028320
Ti	      2.26027      4.12255      2.02162         0.468198     -0.155749     -0.090023
Ti	      8.38608      6.46790     10.37497         0.096087      0.136033      0.085956
Ti	      6.18192      4.05716      6.22661        -0.083616     -0.537931     -0.119977
Ti	      6.27896      8.42333      6.29844        -0.157809      0.114084      0.140233
Ti	      6.27887      6.44483      8.32923         0.048049      0.335647     -0.316778
V	      4.19728      0.05482      4.16107        -0.225353     -0.304527      0.105668
Fe	     10.42409      8.41175     10.38202         0.003911      0.037634      0.090159
Ni	      2.09498      2.08387      4.13019         0.013656      0.048657     -0.013432
Ni	      4.15416      6.32367      6.28595        -0.019277      0.048184      0.063945
O	      2.07553      2.25046      2.10283        -0.002180      0.147392     -0.124299
O	      4.08050      4.22685      2.03944        -0.358989     -0.027557     -0.012932
O	      4.13604      1.97355      4.16461         0.100541      0.389965      0.018021
O	      6.30270      4.25508      4.27547        -0.050499     -0.135873      0.171055
O	      6.24104      2.26232      6.25441        -0.018724      0.434621      0.029220
O	      8.27372      4.21047      6.26765        -0.085428     -0.007822      0.127855
O	      2.11399      4.29239      4.10965         0.039802      0.010368      0.026912
O	      4.11695      6.30285      4.20326        -0.150257     -0.024276     -0.169629
O	      4.20235      4.23545      6.25900         0.056989     -0.127282     -0.007455
O	      6.26531      6.34881      6.25348         0.081982     -0.121512      0.128659
O	      6.34385      4.32494      8.26269         0.034466      0.067352     -0.077671
O	      8.31556      6.23878      8.35877        -0.107619      0.073192      0.070620
O	      2.10983      6.24812      6.18172        -0.127428     -0.043087     -0.057072
O	      4.34988      8.39866      6.21233         0.197515      0.025669      0.001370
O	      4.28260      6.30633      8.37742         0.243178     -0.009302      0.102835
O	      6.31433      8.41100      8.26931         0.044022     -0.092415     -0.015081
O	      6.30683      6.37174     10.38623         0.055172      0.020046     -0.164644
O	      8.32598      8.40381     10.40641         0.008182     -0.273732      0.008939
