# total energy = -216.93630567 eV
 
CRYSTAL
PRIMVEC
0.014073 6.323415 6.232248 
6.282081 -0.018079 6.264818 
4.161967 4.211048 0.014122 
PRIMCOORD
36 1
Li	      2.14111      8.35192      6.22145        -0.008490     -0.035203      0.022179
Li	      6.23989      4.22015      2.24197        -0.046665     -0.027230      0.023800
Li	      4.18895      8.42252      8.31312         0.007697      0.060386     -0.029524
Li	      6.21951      2.24819      4.16183        -0.020662      0.011552     -0.040566
Li	      6.31187      6.14447      4.24879        -0.006502     -0.038740     -0.011413
Li	      4.30499      4.16015      4.28415        -0.038827     -0.022117      0.003796
Li	      6.17794      4.26168      6.08910         0.005313      0.041927      0.046567
Li	      2.10748      4.22286      6.18648         0.018697      0.005298     -0.008064
Li	      4.16099      6.31624      6.19442        -0.042072     -0.009930     -0.009420
Sc	      2.08782      4.10593      2.11828         0.075065     -0.139948      0.029595
Mn	      0.07433      6.28040      6.20233         0.110646     -0.071859      0.087297
Mn	      4.19759      6.25622      2.11839         0.040183     -0.038219      0.089244
Mn	      4.15916      4.22937      8.30962        -0.059891      0.100678      0.028285
Cr	      6.24864      6.35591      8.28914        -0.021757     -0.001258      0.081376
Co	      8.36474      6.33560     10.44603         0.066559     -0.008991      0.100549
Cu	      4.16983      2.13882      6.13786         0.038331      0.096783     -0.095873
Ni	      8.21941      4.25102      4.20576         0.081015     -0.013318     -0.061337
Ni	      4.18274      8.41094      4.23865         0.039269     -0.035028      0.013988
O	      6.27223      4.18552      4.19498        -0.102188     -0.005275      0.031221
O	      1.96533      2.13895      2.11384         0.018173      0.036830     -0.012177
O	      4.15335      4.16364      1.91679        -0.029037     -0.071463     -0.079675
O	      4.18365      2.05548      4.17951         0.018146     -0.043640     -0.058713
O	      6.24869      1.94933      6.42570         0.031732     -0.043748     -0.044733
O	      8.51001      4.29834      6.24648         0.050393     -0.162351      0.136099
O	      2.07947      4.42077      4.12694         0.117010      0.094629     -0.022698
O	      4.03009      6.35089      4.06611        -0.057938     -0.066977      0.010467
O	      4.21198      4.11595      6.42364        -0.020325      0.027007      0.040036
O	      6.35257      6.30587      6.37604        -0.044827      0.024142     -0.036183
O	      6.20662      4.28176      8.35882        -0.042630      0.088785     -0.114227
O	      8.35349      6.40968      8.46135        -0.029819      0.050807      0.002837
O	      1.98213      6.35427      6.08392        -0.075176      0.002303     -0.040557
O	      4.16387      8.59514      6.23850        -0.022695      0.126014      0.126242
O	      4.26808      6.14679      8.33756        -0.000185     -0.002843     -0.095199
O	      6.44260      8.31596      8.35065         0.033538      0.024947     -0.025981
O	      6.37850      6.29029     10.47383         0.016656      0.115815     -0.039015
O	      8.40335      8.34556     10.29677        -0.098737     -0.069764     -0.048224
