# total energy = -219.61323258 eV
 
CRYSTAL
PRIMVEC
-0.020058 6.221012 6.126547 
6.367230 -0.030593 6.137794 
4.234682 4.144428 -0.009713 
PRIMCOORD
36 1
Li	     10.45972      4.08952      6.09945        -0.032241     -0.011073      0.055652
Li	      8.55365      8.31821     12.19220         0.058792     -0.057841     -0.003320
Li	      6.19657      2.22687      8.20121         0.041764     -0.046215      0.044119
Li	      8.35213      4.18126      8.19927        -0.003789     -0.016033     -0.003772
Li	      4.08911      4.21356      4.11577         0.024688     -0.001734     -0.085399
Li	      6.43310      4.13775     10.05634         0.063294     -0.019009      0.055971
Li	      2.16711      4.11764      6.04481        -0.014871      0.001967      0.060304
Li	      4.45168      3.99582      8.19572        -0.012863      0.080265      0.051608
Li	      6.46328      6.05627      8.25139        -0.009350      0.053132     -0.005934
Sc	      2.02286      6.20940      8.05789        -0.008090      0.021725     -0.064629
Mn	      4.21729      8.29441      8.14052        -0.020091     -0.119028      0.051490
Mn	      6.36834      2.01710      4.14573         0.094170     -0.056224     -0.006834
Mn	      2.10206      2.18792      4.09651         0.003689      0.092452     -0.101775
Cr	      4.28021      6.14239      6.13236         0.107104      0.064625      0.073500
Co	      8.48023      4.12631      4.10386        -0.044906     -0.070296     -0.082214
Co	      8.47456      6.22362      6.20897        -0.077257      0.190833      0.596554
Cu	      2.14927      6.08019      3.99799        -0.007089      0.417998     -0.114271
Ni	      6.36680      4.11514      6.22407        -0.009996     -0.002852     -0.027645
O	      6.36925      4.12769      8.16683         0.013996      0.010668      0.162285
O	      2.26726      2.05486      2.13463         0.073215      0.086552     -0.009592
O	      4.27339      3.94927      2.00742        -0.077876      0.050843      0.011022
O	      4.24022      1.96543      4.08172         0.033299      0.008126     -0.653944
O	      6.50761      4.07170      4.07995         0.015499     -0.039495      0.024420
O	      6.18327      2.06707      6.05682         0.432757     -0.071926     -0.291292
O	      8.42626      4.29279      5.99902        -0.061008     -0.256233     -0.190674
O	      2.11775      4.12591      4.08464         0.046955     -0.283947      0.002588
O	      4.40845      6.18406      4.16426        -0.245425      0.003220     -0.138324
O	      4.28434      4.07792      6.14225        -0.132178      0.195935     -0.087996
O	      6.39190      6.20354      6.01510        -0.345602      0.103637     -0.098972
O	      8.46332      6.21133      8.14281         0.071482     -0.245333      0.793688
O	      2.28411      6.18818      6.03937        -0.044268     -0.002253      0.022764
O	      4.23978      8.15433      6.29015         0.001087      0.122344     -0.105348
O	      4.18118      6.32188      8.19815         0.038363     -0.031008      0.090494
O	      6.15220      8.28559      8.30715        -0.041168     -0.099277      0.011957
O	      6.15628      6.32402     10.25903         0.055381     -0.008455     -0.011372
O	      8.28123      8.41048     10.24012         0.012532     -0.066092     -0.025107
