# total energy = -222.28554059 eV
 
CRYSTAL
PRIMVEC
0.006729 6.311012 6.378320 
6.099408 0.016141 6.367958 
4.072400 4.206632 0.004735 
PRIMCOORD
36 1
Li	      8.12073      8.40754     12.56962        -0.055253      0.080965     -0.106701
Li	      1.99668      0.07259      2.13263        -0.041370      0.030915     -0.031868
Li	      8.07975     10.36229     10.72443         0.049979      0.024299      0.106243
Li	      6.22393      8.44356     10.65646        -0.045404     -0.069780      0.127453
Li	      6.15114      2.23584      8.46347         0.063311     -0.086955     -0.026541
Li	      2.03078      4.07679      2.15522        -0.006626     -0.007265     -0.059153
Li	      6.18618      4.16537      6.38550         0.050911     -0.043206     -0.010411
Li	     10.10738      8.44943     10.60196         0.036662     -0.009318      0.084002
Li	      8.13432      6.48000     10.69989         0.001736      0.031585      0.118280
Sc	      6.12630      6.24419      8.67965         0.035855     -0.142924     -0.252633
Mn	      4.04536      2.09828      2.14809        -0.198108      0.156776     -0.081580
Mn	      4.09537      4.22583      4.22678         0.165748      0.154652      0.031971
Mn	      4.10261      2.09062      6.36961         0.340552     -0.432142     -0.098530
Cr	      8.12868      8.44604      8.57931        -0.032743      0.008143     -0.273037
Co	      6.12794      6.37361     12.63902        -0.174955      0.140083     -0.542004
Co	      6.12544      6.28289      4.26654        -0.070977     -0.092695      0.012932
Co	      4.00716      6.37791      6.32634        -0.272529      0.006682     -0.161206
Cu	      1.98015      4.29085      6.31938        -0.042054      0.228629      0.021017
O	      8.13159      8.43419     10.48631         0.051573      0.015640     -0.083183
O	      2.15982      2.07932      2.33797        -0.089811      0.021799      0.131638
O	      4.08731      4.06297      2.31762        -0.067039     -0.063648     -0.211454
O	      4.00602      2.21756      4.37997         0.033721     -0.053099      0.021150
O	      5.99514      4.32906      4.31743         0.033288      0.094549     -0.030063
O	      6.00724      2.01208      6.34223         0.042528     -0.130066     -0.023478
O	      8.31551      4.36467      6.38425        -0.317848      0.085126     -0.038287
O	      2.16469      4.03534      4.23622        -0.107745      0.002427      0.187395
O	      4.17051      6.15068      4.28436         0.059506      0.013913      0.085462
O	      3.97566      4.14251      6.32258         0.233049     -0.177985     -0.021944
O	      6.17649      6.27184      6.26237         0.057883     -0.052562      0.151265
O	      6.01537      4.21216      8.43433         0.152638      0.406788      0.100194
O	      8.16219      6.44150      8.31339        -0.199712     -0.013260      0.094031
O	      1.91811      6.40498      6.36883         0.359449     -0.122004      0.005618
O	      4.11407      8.53991      6.38546        -0.388984      0.164996     -0.001821
O	      4.03734      6.34647      8.38136         0.296039     -0.083829      0.070626
O	      6.04175      8.38865      8.51159         0.109468     -0.197399     -0.064788
O	      6.13429      6.29060     10.61988        -0.062736      0.110169      0.769405
