# total energy = -91.58708878 eV
 
CRYSTAL
PRIMVEC
-2.013537 4.007696 -2.010760 
1.988066 3.982054 1.985139 
2.038862 0.012789 -6.031947 
PRIMCOORD
16 1
Li	      0.08041      3.88732     -3.98897        -0.412322      0.016685     -0.278342
Li	      1.91327      5.81947     -3.88697         0.108982      0.547096     -0.248121
Li	      1.88136      3.88678     -5.77569         0.186663     -0.016698     -0.623890
Li	      1.96233      1.94488     -3.90211         0.032321     -0.555528     -0.085770
Mn	      3.87358      3.87714     -3.89122         3.081615      0.071666     -0.812883
Mn	     -0.00191      5.81993     -1.97463        -1.415286      1.758263     -0.358126
Ni	      0.01434      1.94640     -1.96587        -0.834220     -0.709355     -0.280701
Ni	      1.97371      3.87782     -1.99607         0.478397     -0.117235      1.463073
O	      0.00616      3.89715     -5.99325        -0.240876      0.020203     -0.867870
O	      1.80145      5.78670     -1.93547         1.775625      1.330750     -0.618248
O	      2.09910      3.88174     -3.90549        -1.292500     -0.029327     -1.104078
O	      1.91677      3.77444      0.04864         0.137073     -0.032855      1.344015
O	      1.91022      1.96729     -1.82918         1.542820     -1.438583     -0.764083
O	      0.01986      5.93179     -0.12460        -1.004945      0.589460      1.741469
O	     -0.07518      3.97845     -1.94094        -1.040592     -0.641668     -0.204661
O	      0.10264      1.82201     -0.04334        -1.102755     -0.792873      1.698216
