# total energy = -222.76394631 eV
 
CRYSTAL
PRIMVEC
0.030272 6.254830 6.389741 
6.190209 0.013611 6.406542 
4.093930 4.148639 0.041896 
PRIMCOORD
36 1
Li	     10.18115      4.18346      6.45096         0.029950     -0.012154      0.050129
Li	      6.19508      4.19096      2.27142        -0.030286     -0.064562      0.002669
Li	      4.17662      8.23715      8.67781         0.015867      0.076790      0.063322
Li	      4.11996      0.02344      4.25235         0.030367     -0.072177      0.025527
Li	      6.14314      8.36086     10.56883        -0.084071      0.103853     -0.034749
Li	      8.28344      4.17093      8.48840         0.017934     -0.022740     -0.070375
Li	      4.16515      2.08391      6.32484         0.009270      0.048377     -0.055119
Li	      4.13902      6.24614      6.57283         0.054329     -0.012945      0.070308
Li	      8.22504      8.36385      8.65618        -0.014530     -0.003551     -0.041072
Sc	      2.13197      4.26395      6.43954         0.016832     -0.124145      0.137328
Mn	      2.05184      2.06323      0.04784         0.008700      0.225486     -0.043046
Mn	      4.06971      6.16410      2.14514         0.025516     -0.015915     -0.104601
Mn	      6.15528      6.24965      8.53301        -0.091450      0.123392     -0.089439
Cr	      6.17717      4.20300     10.64595         0.016498     -0.067917      0.060074
Co	      2.15651      2.05245      4.24885         0.120146     -0.239211     -0.035485
Co	      4.12650      4.16496      4.25408         0.120265     -0.082924      0.051856
Co	      6.18334      4.17840      6.36846        -0.140862     -0.120395     -0.285485
Ni	      8.22616      6.27818     10.67636         0.048268      0.043324      0.034022
O	      1.93448      2.07033      2.02824        -0.060846      0.000520     -0.177661
O	      4.11111      4.29076      2.31390        -0.071766      0.056011      0.069050
O	      4.11039      2.27081      4.24681        -0.196151     -0.153870      0.057974
O	      6.02788      4.16896      4.28959         0.241169      0.357221      0.694907
O	      6.27380      2.05152      6.58638         0.106424      0.157089      0.143139
O	      8.21827      3.98201      6.42541        -0.327558     -0.169962     -0.070124
O	      2.07435      4.16766      4.29804        -0.202105     -0.094305      0.101090
O	      4.14171      6.24932      4.11744         0.037661      0.115588     -0.107504
O	      4.14337      4.20712      6.20221         0.101901      0.101534     -0.102314
O	      6.19768      6.27109      6.56723         0.032042     -0.027722      0.213877
O	      6.18224      4.19425      8.61575         0.063862     -0.057806     -0.310692
O	      8.30798      6.26646      8.59438         0.034683     -0.037245     -0.037733
O	      2.06782      6.33275      6.39217        -0.008645     -0.019369      0.019399
O	      4.03315      8.33588      6.31167         0.057416      0.004347     -0.150242
O	      4.30356      6.22901      8.56809         0.072665     -0.003247      0.028297
O	      6.22749      8.15693      8.53462        -0.004900     -0.066050     -0.147446
O	      6.21938      6.17482     10.49471        -0.141946     -0.105731     -0.059653
O	      8.29062      8.29361     10.87361         0.113355      0.160412      0.099773
