# total energy = -223.42375134 eV
 
CRYSTAL
PRIMVEC
-0.006005 6.313739 6.345108 
6.307126 -0.023158 6.362480 
4.184313 4.200503 0.004774 
PRIMCOORD
36 1
Li	      2.07219      0.10631      2.11279        -0.156174      0.026295     -0.043776
Li	      4.04945      2.14305      2.15460        -0.004422      0.119556     -0.079337
Li	      4.25789      6.31252      2.29629         0.031519     -0.146879     -0.162962
Li	      2.10987      4.09931      2.31817         0.088886     -0.026428     -0.070773
Li	      1.94527      2.13592      4.08054        -0.006176      0.006278     -0.038721
Li	      4.11578      4.41705      4.10922         0.021338     -0.039281     -0.084896
Li	      4.27614      8.21502      4.23936         0.000771      0.070824      0.038484
Li	      2.30380      6.18691      4.16292        -0.025559     -0.019512      0.024527
Li	      4.20455      6.28924      6.07754        -0.031682      0.077950     -0.041644
Sc	      2.09930      4.19043      6.17993        -0.248737      0.093095      0.239528
Mn	      2.12905      8.36277      6.43916         0.128670     -0.166006      0.001740
Mn	      8.36945      4.20781      4.28897        -0.003004     -0.231500      0.118962
Mn	      4.25383      4.17698      8.47669         0.038260     -0.001500      0.129425
Cr	      6.26573      2.10528      4.24913         0.085441     -0.043546      0.042185
Co	      6.33764      6.25541      8.51894        -0.182940      0.119383     -0.044250
Co	      4.23523      4.15037      0.21739        -0.038716     -0.114179     -1.411604
Co	      8.36746      6.29686      6.39734        -0.003449      0.132182     -0.090069
Co	      6.25203      4.22355      6.33165         0.086471      0.001557      0.002844
O	      4.20053      6.32415      4.19169         0.016279     -0.065528      0.024390
O	      2.09645      2.07984      1.92912         0.002435      0.022090      0.056360
O	      4.14741      4.22528      1.96107         0.096193     -0.021122      0.869800
O	      4.27361      1.91996      4.25151        -0.149089      0.108979      0.702252
O	      6.41630      4.12557      4.34825         0.024200      0.032660      0.017210
O	      6.26740      2.21709      6.25195        -0.565582      0.144268      0.242007
O	      8.25717      4.16954      6.26888        -0.096792      0.711945      0.076399
O	      2.09293      4.18816      4.26530         0.079170     -0.022248     -0.163032
O	      4.28903      4.17424      6.30413         0.074534     -0.660277     -0.057111
O	      6.34023      6.18667      6.37868         0.616913     -0.009027      0.122225
O	      6.19429      4.23064      8.26334         0.075770      0.434691      0.076182
O	      8.35415      6.43380      8.45395        -0.510407     -0.216014     -1.010647
O	      2.02479      6.32308      6.33211         0.108255      0.060922      0.117127
O	      4.18412      8.45818      6.38162        -0.126374     -0.039891      0.077891
O	      4.27032      6.15111      8.72023         0.460659      0.136150      0.055974
O	      6.45025      8.35716      8.57295         0.021942     -0.483125      0.078689
O	      6.11231      6.40537     10.76640         0.112562     -0.106276      0.107786
O	      8.30465      8.53710     10.75545        -0.021164      0.113517      0.076836
