# total energy = -221.98660009 eV
 
CRYSTAL
PRIMVEC
-0.005017 6.270735 6.291286 
6.289481 -0.016507 6.303094 
4.179833 4.175050 0.002204 
PRIMCOORD
36 1
Li	     10.32680      4.23363      6.32200         0.045000      0.043921     -0.025119
Li	      8.32646      2.20017      6.33381        -0.012357     -0.000489      0.039444
Li	      4.11946      2.07760      2.15012         0.018200      0.026420      0.048887
Li	      8.37943      4.15717      4.27645         0.032582      0.059879     -0.001183
Li	      6.32461      2.08390      8.24262        -0.034872      0.008902     -0.013392
Li	      6.28989      6.21752      4.19881        -0.011996     -0.005319      0.005126
Li	      8.46407      6.15242      6.32883         0.013907      0.025260      0.021766
Li	      6.35839      4.13273      6.29507         0.053262      0.018991      0.064729
Li	      4.22499      4.24727      8.35234         0.019267      0.005743     -0.040903
Sc	      8.37049      6.32038     10.50705        -0.100017     -0.128107     -0.135767
Mn	      6.28596      2.11775      4.25956         0.075197      0.014141     -0.068394
Mn	      2.07857      4.10313      2.04874        -0.049131      0.070522      0.034857
Mn	      4.21412      4.14794      4.22579        -0.028460     -0.115075     -0.120584
Cr	      2.13344      6.33392      8.36031        -0.298825      0.024763      0.191413
Fe	      6.24775      8.26117      6.38513        -0.050609      0.051657     -0.189992
Co	      4.17602      8.34694      4.19409        -0.746540      0.087501     -0.171720
Cu	      4.19639      6.25891      6.30782        -0.020801      0.064711     -0.085596
Ni	      6.23245      6.23734      8.39067         0.042829     -0.040445      0.076595
O	      8.37417      4.14285      6.53306         0.051597      0.033549      0.032136
O	      2.09167      2.12721      2.12220        -0.006525      0.010480     -0.027649
O	      4.14054      4.18755      2.23612        -0.029323     -0.019079     -0.050632
O	      4.36972      2.20006      4.22335        -0.063562      0.065830     -0.018593
O	      6.34937      4.08555      4.09001         0.169049     -0.119419     -0.062838
O	      6.30629      2.09302      6.09134         0.073268      0.042123     -0.036688
O	      2.01202      4.15344      4.17047         0.577993      0.112078     -0.068916
O	      4.17229      6.14576      4.28659        -0.046353     -0.152189      0.042698
O	      4.06792      4.19373      6.18834         0.155324     -0.111085      0.217987
O	      6.20810      6.30438      6.37079         0.006522     -0.126047     -0.181756
O	      6.41172      4.15634      8.53939         0.162413     -0.090314     -0.662809
O	      8.34578      6.04928      8.44356         0.097259     -0.073321      0.038190
O	      2.09057      6.17401      6.34209        -0.071515      0.048448      0.009768
O	      4.25761      8.30315      6.08463        -0.011658     -0.075777      0.906048
O	      4.11676      6.29957      8.26627         0.112281     -0.016020      0.096694
O	      6.27883      8.42830      8.40447         0.022902      0.106204      0.020874
O	      6.24992      6.40960     10.44997         0.045713      0.193308      0.083119
O	      8.33401      8.34788     10.44048        -0.192023     -0.041746      0.032203
