# total energy = -221.76184083 eV
 
CRYSTAL
PRIMVEC
0.041617 6.325988 6.262749 
6.244182 0.050344 6.253676 
4.190053 4.238278 0.006507 
PRIMCOORD
36 1
Li	      2.17176      8.44823      6.28426        -0.028956     -0.010312      0.039739
Li	      2.12627      6.37134      8.28994         0.009995     -0.019745     -0.013983
Li	      4.20982      8.44195      8.34797         0.016569     -0.050762     -0.002183
Li	      4.27202      6.29016     10.35909         0.080390     -0.010767     -0.056041
Li	      2.13470      4.14125      2.14743        -0.028070     -0.039283     -0.001066
Li	      6.29345      4.32574     10.45969         0.073691      0.097824     -0.054454
Li	      8.32679      6.38511     10.43309        -0.091457     -0.010866     -0.057885
Li	      2.02617      4.28816      6.22160        -0.016503      0.042180      0.048104
Li	      6.22623      6.41344      8.49133         0.028347      0.071430      0.148304
Sc	      8.28412      6.33848      6.26229         0.050387     -0.015664      0.145938
Mn	      4.14694      4.25872      4.07512        -0.168739      0.054916      0.061266
Mn	      6.31257      4.23005      6.27825        -0.098870     -0.125531      0.245578
Mn	      8.37733      8.50975      8.41193        -0.348144      0.072220     -0.174991
Cr	      0.10254      6.25602      6.23485         0.047909      0.060515      0.127278
Fe	      4.07155      6.51162      6.30632         0.005528     -0.074185     -0.012645
Co	      0.04518      2.09380      2.09040        -0.407912      0.048543      0.017988
Cu	      6.37791      8.40758     10.37508        -0.070285      0.135613      0.251860
Cu	      2.06390      2.18849      4.11315        -0.072216     -0.044615      0.076665
O	      6.29300      6.40325     10.52239        -0.019842     -0.179780      0.218549
O	      8.39194      8.52838     10.27344        -0.286271     -0.047171      0.024670
O	      1.92381      2.11673      2.20430         0.199158     -0.064990     -0.093302
O	      4.21020      4.40189      2.00989        -0.045251     -0.116810     -0.190538
O	      4.27627      2.26325      4.14259         0.092351      0.008420     -0.051748
O	      6.15949      4.22493      4.34233        -0.043913      0.132591     -0.046254
O	      6.25968      2.06395      6.32950        -0.014563     -0.089750      0.422465
O	      8.32830      4.29304      6.25809        -0.005473      0.137760      0.002430
O	      2.24462      4.17901      4.15426         0.264186     -0.007672     -0.013124
O	      4.13185      6.23586      4.13331         0.269245     -0.091681     -0.112299
O	      4.25107      4.27850      6.37565         0.201410     -0.036533      0.016018
O	      6.21770      6.36675      6.17923         0.020965      0.054573     -0.153676
O	      6.20562      4.14587      8.25399        -0.120323     -0.087238     -0.158716
O	      8.47614      6.53286      8.31161         0.100582      0.168624      0.036273
O	      2.13032      6.33895      6.25817         0.017381      0.037028     -0.096661
O	      4.21056      8.45357      6.30442        -0.054240      0.086421     -0.044533
O	      4.21820      6.22560      8.25779         0.022740     -0.215971      0.152033
O	      6.47285      8.44264      8.43832         0.420196      0.130664     -0.701056
