# total energy = -225.52503159 eV
 
CRYSTAL
PRIMVEC
0.012512 6.229159 6.465192 
6.177100 0.027882 6.449079 
4.111104 4.135426 0.026323 
PRIMCOORD
36 1
Li	      0.04700      6.20079      6.44708         0.003493     -0.016497      0.004243
Li	      6.23461     10.26973      8.65463         0.008991     -0.044740      0.002441
Li	      4.15603      8.29347      8.56554        -0.014542      0.020568     -0.071501
Li	      4.12374      6.22142     10.64566        -0.047653     -0.032638     -0.066959
Li	     10.25176      6.30936      8.70989        -0.008329      0.048537      0.052194
Li	      6.15673      4.13885      6.51452        -0.013239     -0.042481      0.033580
Li	      0.01473      4.12389      4.27389         0.020958      0.005518      0.016287
Li	      2.07482      6.25794      4.35678         0.020857      0.009065      0.068113
Li	      8.23840      8.33433      8.73446         0.019207     -0.027485      0.093842
Sc	      2.04577      2.06602      0.02871        -0.129403      0.111282     -0.109334
Mn	      6.17304      8.27358     10.77501         0.138571      0.204780      0.194855
Mn	      8.25586      4.20551      8.58331         0.019565      0.115935      0.035275
Mn	      4.10218      4.17198      4.22099         0.197825      0.149586     -0.045269
Cr	      4.14423      6.21168      6.48894         0.069999     -0.110402     -0.090990
Fe	      6.13546      6.23526      8.72034         0.120105     -0.094045     -0.104779
Co	      2.07936      2.05237      4.24349        -0.109441     -0.081608     -0.127413
Co	      8.25164      6.20177      6.48090         0.119337     -0.003001      0.094881
Cu	      6.13747      8.35760      6.53084        -0.066012      0.061577     -0.011539
O	      2.03730      2.24126      2.12272         0.011156      0.004045      0.197969
O	      4.00992      4.16778      2.23527        -0.047790     -0.007598     -0.015729
O	      4.15172      2.01064      4.50600         0.088677      0.030442      0.019326
O	      6.04003      4.06056      4.27610        -0.117748     -0.091987     -0.011090
O	      6.09112      2.08517      6.30955        -0.115544     -0.017910     -0.030868
O	      8.23853      4.24552      6.63194         0.005676      0.041745     -0.006259
O	      2.17417      4.16656      4.07475        -0.022101      0.014617     -0.028277
O	      4.16151      6.23454      4.46601         0.042965     -0.113104      0.051165
O	      4.03797      4.09192      6.32008         0.005237     -0.014058     -0.025964
O	      6.25178      6.32014      6.49431        -0.024213     -0.089114     -0.021830
O	      6.31449      4.25313      8.64271         0.074024     -0.041568     -0.000210
O	      8.22373      6.16771      8.43659        -0.020377      0.003327     -0.125854
O	      2.15812      6.21959      6.52205        -0.055915     -0.083562      0.015952
O	      4.14166      8.21132      6.46104         0.052855      0.068727      0.031794
O	      4.20376      6.19733      8.49391        -0.082014     -0.004710     -0.042314
O	      6.17409      8.23997      8.87769        -0.010691      0.104933     -0.048944
O	      6.20083      6.35858     10.71327        -0.030851     -0.045844      0.097427
O	      8.08281      8.36525     10.86618        -0.103635     -0.032333     -0.024221
