# total energy = -224.30201954 eV
 
CRYSTAL
PRIMVEC
0.027630 6.256793 6.115598 
6.486233 -0.003132 6.145460 
4.311411 4.179038 0.010440 
PRIMCOORD
36 1
Li	      0.27156      6.05574      6.07418         0.001868     -0.006588     -0.006116
Li	      2.10834      6.24307      7.93897        -0.024141     -0.048885      0.040963
Li	      4.38380      8.29038      8.01037        -0.010942     -0.047060      0.017977
Li	      4.26156      4.25171      4.22060         0.006637      0.036045      0.050054
Li	      4.25903      2.19198      6.11879         0.007679     -0.005195     -0.004427
Li	      4.42528      8.30931      4.28541         0.065284      0.007731     -0.025808
Li	      2.24608      6.21999      4.20929        -0.013358      0.017340     -0.024609
Li	      1.96939      4.33980      6.08330        -0.121576      0.015684      0.027679
Li	      4.19262      6.34274      6.09688        -0.024992      0.010349      0.009115
Sc	      2.30465      4.19805      1.98665         0.075782      0.020058     -0.020965
Mn	      0.08961      2.09039      2.01737        -0.011908     -0.062554     -0.029196
Mn	      2.21767      2.09106      4.12099         0.029977     -0.001049     -0.005314
Mn	      8.58567      8.36401      8.15984        -0.024756      0.033912      0.004909
Cr	      6.43112      6.27388      8.17775        -0.007685      0.020939     -0.009781
Fe	      6.33703      2.07239      4.14206         0.031138      0.070372      0.030163
Co	      8.58689      4.17674      4.12629        -0.010303     -0.022220      0.001077
Co	      6.49981      4.18494      6.15132         0.041189     -0.004744     -0.076348
Ni	      2.31777      8.22918      6.05956        -0.053051      0.088216      0.011620
O	      2.20607      6.27108      6.04531        -0.034229     -0.183471      0.020232
O	      2.26915      2.10631      2.16099         0.011264      0.021553      0.139950
O	      4.30037      4.38142      1.99053        -0.027696      0.057972      0.029403
O	      4.27790      1.96515      4.13433        -0.143564     -0.085774     -0.025763
O	      6.59688      4.21610      4.20687         0.025518      0.051358      0.044361
O	      6.52037      2.22672      6.16214        -0.094754      0.127729      0.092359
O	      8.46340      4.12714      6.05876        -0.113723      0.052314     -0.002802
O	      2.24853      3.98072      4.07923         0.001319     -0.034349      0.012145
O	      4.58180      6.25311      3.95353         0.091311      0.034888      0.024754
O	      4.56089      4.17773      6.26037         0.095024     -0.014266     -0.020621
O	      6.52203      6.12118      6.11791         0.018864     -0.101779     -0.045273
O	      6.57102      4.16097      8.11168         0.004142      0.011609     -0.036214
O	      8.50918      6.32311      8.26764        -0.036974     -0.014201     -0.007140
O	      4.26968      8.34280      6.12589         0.230970      0.014726      0.038685
O	      4.43402      6.14252      8.28894         0.038230     -0.001983      0.044173
O	      6.42138      8.25967      8.26853         0.000806     -0.041002     -0.084939
O	      6.25734      6.32904     10.18057        -0.054077     -0.089878     -0.052137
O	      8.45884      8.47610     10.15764         0.030727      0.072205     -0.162165
