# total energy = -226.44637998 eV
 
CRYSTAL
PRIMVEC
0.008383 6.265125 6.268386 
6.308071 0.047687 6.228408 
4.243111 4.187515 -0.005288 
PRIMCOORD
36 1
Li	      4.29834      8.36581      8.38799        -0.002396     -0.017708     -0.006401
Li	      4.13473      0.17540      4.13242        -0.023264     -0.001703     -0.078580
Li	      6.28153      8.38321     10.33514         0.029207      0.028076     -0.046504
Li	      8.42993      4.26176      8.27608        -0.015499      0.006771     -0.014619
Li	      4.26772      4.10654      4.29775         0.057015      0.026816     -0.012282
Li	      4.16839      2.23026      6.14041        -0.006013     -0.039024     -0.008608
Li	      2.28435      4.19463      6.32622         0.054651      0.009113      0.014392
Li	      4.27768      6.11048      6.33150        -0.011745      0.000536      0.048249
Li	      4.14734      4.22059      8.19472        -0.035017      0.026323      0.005238
Sc	      6.28328      4.26347     10.36466        -0.023182      0.071157      0.055834
Mn	     10.46035      4.27331      6.20648         0.024733     -0.027577      0.082420
Mn	      2.19908      2.10099      4.20218         0.108422     -0.113422      0.017794
Mn	      2.16844      6.20632      4.21256        -0.030280      0.024981      0.130349
Cr	      2.11788      2.11267      0.02522         0.011051     -0.079366     -0.008217
Fe	     10.49195      6.31085      8.30243         0.083265     -0.069461     -0.036093
Co	      6.45548     10.36192      8.34692         0.081507     -0.062043      0.012766
Co	      6.30221      4.23252      6.22437        -0.061265      0.045420     -0.123782
Co	      6.21380      6.40744      8.26758        -0.093346      0.010493      0.001686
O	      2.02836      2.01107      2.13357         0.038718     -0.041884      0.035019
O	      4.35455      4.26804      1.90812        -0.024602     -0.022484     -0.087652
O	      4.02991      2.15270      4.14214        -0.161130     -0.004012      0.013066
O	      6.34743      4.36431      4.24869         0.042765      0.092477      0.017929
O	      6.37546      2.14500      6.28329         0.020378     -0.103628      0.011936
O	      8.30883      4.12703      6.25078        -0.016975     -0.029418      0.054660
O	      2.07819      4.15567      4.22849        -0.022466     -0.034317     -0.038930
O	      4.37244      6.30586      4.07900         0.021059      0.044211      0.030774
O	      4.42967      4.17139      6.23686         0.057271      0.002324      0.063800
O	      6.36006      6.18829      6.14951        -0.017643      0.085892     -0.058940
O	      6.32024      4.23719      8.24128         0.000261     -0.019367      0.014336
O	      8.49939      6.27641      8.49885        -0.090828      0.009350      0.038644
O	      2.15483      6.31554      6.17614         0.027282      0.025640     -0.084797
O	      4.10035      8.52658      6.23701        -0.018491      0.076229     -0.068911
O	      4.20506      6.27863      8.33556        -0.080998     -0.002494     -0.009797
O	      6.34274      8.37422      8.32871         0.044808      0.090833      0.002971
O	      6.26990      6.32484     10.50035         0.006336     -0.018240      0.014918
O	      8.45573      8.23136     10.53047         0.026412      0.009503      0.017333
