# total energy = -218.73444377 eV
 
CRYSTAL
PRIMVEC
0.038762 6.337956 6.219687 
6.210268 0.036551 6.221535 
4.168925 4.254908 -0.004013 
PRIMCOORD
36 1
Li	      6.23327      6.38576     12.37757        -0.027497      0.026831     -0.026792
Li	      8.32240      8.52177     12.31030        -0.053700      0.038259     -0.044156
Li	      8.38332     10.56093     10.44150         0.006580     -0.027458      0.075590
Li	      6.30466      8.46020     10.43397         0.049939     -0.057869      0.052252
Li	     10.32273      6.42660      8.27760        -0.067191      0.000034     -0.039064
Li	      4.16136      4.25148      4.17778         0.017340     -0.016060      0.009208
Li	      4.24142      2.13358      6.18607         0.034831     -0.060900     -0.042104
Li	     10.29597      8.53394     10.39513        -0.069596      0.046272      0.014544
Li	      8.39531      8.44815      8.36387         0.076457     -0.057816      0.044962
Sc	      6.22042      6.42252      4.21299         0.093994     -0.046541     -0.016120
Mn	      6.27030     10.57830      8.29866        -0.019677      0.041099      0.087180
Mn	      4.16348      2.15302      2.07356        -0.008156     -0.034754      0.008774
Mn	      6.26063      6.37657      8.34410         0.005395     -0.027711     -0.084591
Cr	      8.31446      4.31100      8.26343        -0.061568     -0.035611     -0.162802
Fe	      6.20204      4.07948      6.16698         0.012806      0.216426     -0.005306
Cu	      8.34359      6.47972     10.38795        -0.023525     -0.035569      0.020890
Ni	      2.12779      4.26326      6.18414         0.148093     -0.066649     -0.003455
Ni	      4.16024      6.37296      6.18775         0.055785     -0.043491     -0.001219
O	      8.33492      8.41734     10.33165        -0.037912     -0.010117      0.008239
O	      2.21119      2.18376      2.08506        -0.007134      0.002780     -0.003309
O	      4.14027      4.08097      2.02688         0.012480      0.002732      0.004001
O	      4.11564      2.13955      3.97868         0.041362      0.020050     -0.005038
O	      6.24200      4.31313      4.13077        -0.020671      0.028517     -0.164678
O	      6.18418      2.25192      6.28523         0.029089     -0.434660      0.065621
O	      8.15976      4.28506      6.28958         0.249189     -0.021763     -0.009123
O	      2.09618      4.26060      4.09932         0.007414      0.118637     -0.113690
O	      4.14881      6.38207      4.12856        -0.023803      0.031647     -0.156680
O	      4.25953      4.29239      6.24943        -0.230934      0.031973      0.002825
O	      6.24898      6.39170      6.31781         0.108464      0.067428      0.046790
O	      6.30595      4.43807      8.22815        -0.033084      0.104267      0.131958
O	      8.19602      6.30191      8.32351        -0.021582      0.020937     -0.116390
O	      2.13378      6.28669      6.29109        -0.102619      0.087044      0.079784
O	      4.25626      8.43237      6.36344        -0.158060      0.110363      0.002273
O	      4.25492      6.50649      8.28885         0.032981      0.013360      0.118518
O	      6.15192      8.39853      8.26281         0.035621     -0.043051      0.150421
O	      6.32121      6.37564     10.20355        -0.051111      0.011367      0.070688
