# total energy = -218.93580256 eV
 
CRYSTAL
PRIMVEC
0.021722 6.308932 6.203942 
6.352515 0.045027 6.180541 
4.263455 4.218671 0.001845 
PRIMCOORD
36 1
Li	      4.31887     10.38079      6.14308         0.023493     -0.023806      0.006515
Li	      4.32160      8.34279      8.19700         0.023839      0.000029      0.010088
Li	      4.33407      6.41888     10.29629         0.030750      0.013618     -0.035660
Li	      4.17004      4.22948      4.17910         0.003852     -0.015879      0.000570
Li	      4.40504      8.40654      4.25097        -0.037455     -0.020874     -0.033670
Li	      2.11250      6.22993      4.19829        -0.039543      0.046943      0.039195
Li	      6.24641      8.44561      6.07228        -0.064138      0.005521      0.053567
Li	      4.23986      6.43713      6.19550        -0.044914     -0.020881      0.023328
Li	      6.31298      6.38537      8.28098        -0.081128      0.059225      0.015305
Sc	      4.25690      4.27549      8.27496        -0.144384      0.151318      0.069654
Mn	      2.13389      6.32697      8.25375         0.024622     -0.032061     -0.182336
Mn	      6.33364      8.37267     10.34218         0.032038     -0.019753     -0.210970
Mn	      4.25749      6.26823      2.14001         0.115152     -0.069731     -0.112820
Cr	      2.23258      8.40169      6.15801         0.221701      0.075491      0.022671
Fe	      6.34809      4.33840      6.12060         0.030993      0.048446     -0.094054
Cu	      2.12705      4.22575      2.12579         0.114325      0.145545      0.126792
Cu	      2.13139      2.20195      4.19193         0.004656     -0.077936      0.202859
Ni	      4.24765      2.12039      6.16049        -0.004660      0.010571     -0.056734
O	      2.15395      4.11685      4.03211         0.022355      0.070035     -0.036579
O	      4.16649      8.43363      6.18467        -0.154409     -0.009080     -0.018115
O	      2.00638      1.97318      2.01529        -0.162019     -0.006717     -0.057276
O	      4.41320      4.37679      2.04563        -0.115146      0.146076      0.036267
O	      4.42483      2.12194      4.15737        -0.091865      0.056338     -0.094599
O	      6.38253      4.23386      4.09541         0.012934     -0.045543     -0.114239
O	      6.41982      2.21959      6.12187         0.089604     -0.027103      0.161124
O	      8.40921      4.19513      6.32594        -0.017722     -0.112659     -0.118373
O	      4.25698      6.33203      3.94883        -0.012621     -0.056663      0.062099
O	      4.36082      4.20559      6.22296         0.019096      0.087067     -0.008743
O	      6.45752      6.28320      6.22765        -0.070124      0.101610      0.004006
O	      6.34429      4.08601      8.19485        -0.042068     -0.091682      0.115692
O	      8.70637      6.34306      8.21517         0.125305     -0.125789      0.134257
O	      2.14399      6.38483      6.34905        -0.022443      0.000866     -0.007301
O	      4.06644      6.30453      8.27964         0.107363     -0.013448     -0.009134
O	      6.37963      8.57992      8.39275         0.027332     -0.145091      0.048967
O	      6.38820      6.54057     10.26040         0.010845     -0.106976      0.026624
O	      8.34364      8.45094     10.37239         0.064384      0.002972      0.031023
