# total energy = -219.28790698 eV
 
CRYSTAL
PRIMVEC
0.010873 6.367660 6.104225 
6.346401 0.001635 6.113839 
4.230043 4.250418 0.002076 
PRIMCOORD
36 1
Li	      6.38787     10.57161      8.16990         0.016360     -0.088089      0.015714
Li	      4.23304      2.13007      2.03879         0.070838     -0.012682      0.048629
Li	      4.14508      0.10187      3.93213        -0.000776      0.055386     -0.047309
Li	      4.32444      6.26808      2.02602         0.018963     -0.032483      0.014397
Li	      2.19567      2.05356      3.96195         0.040674     -0.012431      0.034697
Li	      4.25167      4.22231      3.98938        -0.009721     -0.030849     -0.022486
Li	      6.30219      8.54931      6.29756         0.034695     -0.032787      0.103477
Li	      8.33410      8.59905      8.13210        -0.042282      0.041966     -0.013800
Li	      6.27464      6.49141      8.10797        -0.034715      0.050593      0.018617
Sc	      6.34193      4.25695     10.10644         0.079199      0.088406     -0.165686
Mn	      8.42737      6.41854      6.14291        -0.126651      0.173692     -0.034173
Mn	      6.33767      4.26431      6.11054        -0.145317      0.140704     -0.048869
Mn	      4.24927      6.35672      6.18614        -0.064430      0.012733      0.054160
Cr	      6.32073      2.15296      4.03748        -0.068930     -0.046323     -0.014067
Fe	      2.16049      6.33045      4.01186        -0.016484     -0.119440     -0.146053
Cu	      4.31457     10.54875      6.18167        -0.019714     -0.075916     -0.039749
Cu	      2.14328      2.08859      0.07379        -0.047788      0.058976      0.011375
Cu	      2.16150      4.20038      2.01673         0.063817     -0.042616      0.169510
O	      4.14043      4.25262      1.92657         0.181973     -0.000313      0.233727
O	      4.24151      6.36339      8.02337        -0.025858      0.007750     -0.009025
O	      6.35648      8.48144      8.25381        -0.031740      0.058687     -0.051770
O	      2.11844      2.21153      1.96807        -0.009253     -0.102039      0.007874
O	      4.32397      2.13018      4.23522        -0.033294     -0.020322      0.055637
O	      6.36933      4.15520      4.19702        -0.004320     -0.011096      0.042947
O	      6.27333      2.30167      6.09050         0.043461      0.103239      0.079798
O	      8.31047      4.33134      6.14340        -0.112205      0.008404     -0.188489
O	      2.09068      4.33383      3.99206        -0.045844      0.017565      0.137050
O	      4.16113      6.41479      4.16878         0.036543      0.028312     -0.035940
O	      4.39153      4.27911      6.13116         0.002825     -0.134556     -0.005183
O	      6.33091      6.21511      6.07491         0.140859     -0.019905     -0.023404
O	      6.40285      4.24981      8.05659        -0.108052     -0.009781     -0.055626
O	      8.44786      6.32040      8.11937         0.003730      0.063687     -0.150805
O	      2.20957      6.30966      6.05781         0.306476      0.123400      0.094415
O	      4.29162      8.37587      6.07643        -0.134283     -0.233399      0.144411
O	      6.42510      6.41459     10.32803         0.037588     -0.002345     -0.161470
O	      8.42237      8.41405     10.26726         0.003656     -0.006128     -0.052532
