# total energy = -219.44125655 eV
 
CRYSTAL
PRIMVEC
0.023199 6.207330 6.287963 
6.249051 0.021021 6.290356 
4.176151 4.149964 0.003808 
PRIMCOORD
36 1
Li	      0.05038      6.15840      6.21950         0.001732     -0.036305     -0.088998
Li	      2.13263      6.20818      8.34279        -0.005703      0.043763     -0.030792
Li	      8.30635      4.19918      8.43149        -0.002404     -0.023254      0.068307
Li	      6.20044      6.27706      4.27531        -0.034649      0.048020      0.080508
Li	      6.26343      4.27979      6.33236        -0.018260      0.128179      0.033106
Li	      0.10280      4.16817      4.16074         0.112875      0.025628     -0.026299
Li	      2.08716      6.15005      4.20590         0.028778     -0.021579     -0.001535
Li	      4.22537      6.22222      6.25197         0.028826      0.006324     -0.066095
Li	      6.30793      6.15647      8.35521        -0.001625      0.009563     -0.003681
Sc	      6.25588      2.12250      8.36958         0.157591     -0.053099      0.110621
Mn	      8.33737      4.16354      4.19640        -0.041483      0.020900      0.031773
Mn	      6.28234      8.27200     10.47195        -0.085280      0.004806      0.030835
Mn	      4.17851      4.18656      4.21474        -0.178304      0.242661      0.024785
Cr	      2.16252      8.20339      6.27900         0.028478     -0.057664      0.117570
Fe	      6.22169      8.31392      6.27685        -0.017004      0.129661     -0.019826
Ni	      4.16724      8.29124      8.34681        -0.015550     -0.049002      0.005439
Ni	      8.28227      6.19381      6.33441         0.022947     -0.066304     -0.060088
Ni	      4.20745      4.17309      8.35417        -0.065850      0.092447      0.026208
O	      2.12417      2.08901      1.96044        -0.191185     -0.007249     -0.068560
O	      4.15223      4.11058      2.30232         0.038069      0.144263      0.038720
O	      4.29783      2.15475      4.20342         0.049398     -0.007406     -0.010665
O	      6.20353      4.02549      4.22625         0.008375     -0.076010      0.021887
O	      6.31712      2.04964      6.17845         0.034318     -0.030794     -0.054036
O	      8.33398      4.10263      6.12288        -0.001317     -0.102340     -0.040841
O	      2.25167      4.14659      4.26891         0.075563      0.004628     -0.108218
O	      4.23516      6.06199      4.15635        -0.033559     -0.080102     -0.101836
O	      4.12621      4.12988      6.20979         0.100545      0.105468     -0.097521
O	      6.28698      6.37024      6.29303        -0.101493     -0.202484      0.067490
O	      6.19034      4.14794      8.43858         0.079367     -0.013505     -0.011219
O	      8.37794      6.31518      8.32209         0.006083     -0.096042      0.177667
O	      2.09478      6.17894      6.30335         0.020785      0.112272      0.001164
O	      4.18930      8.28241      6.29108        -0.064567     -0.009553     -0.126452
O	      4.16434      6.21787      8.57518        -0.001826     -0.055778     -0.004205
O	      6.29386      8.31379      8.49713         0.035547     -0.011698      0.089297
O	      6.16773      6.39101     10.47662         0.021994     -0.029958     -0.020882
O	      8.20157      8.30082     10.51692         0.008788     -0.088457      0.016371
