# total energy = -226.32132522 eV
 
CRYSTAL
PRIMVEC
0.070057 6.337951 6.347800 
6.268449 0.072080 6.346691 
4.196541 4.241933 0.029732 
PRIMCOORD
36 1
Li	      4.19648      4.22479      0.18434         0.008486      0.006867     -0.001028
Li	      4.17914      2.29082      2.10330        -0.022514      0.023957     -0.042005
Li	     10.42343      6.35023      8.44073         0.028859     -0.011067     -0.011661
Li	      2.22379      4.28801      2.11256         0.016492     -0.029128     -0.043615
Li	      4.15258      4.32024      4.22968         0.018756      0.006818     -0.049262
Li	      4.17537      2.31639      6.41501        -0.026882      0.038263     -0.041625
Li	      6.22559      4.27510      6.41657         0.027141     -0.012133     -0.034054
Li	      2.21768      6.20700      4.10613         0.012141     -0.016980      0.040844
Li	      2.21808      4.20046      6.26976        -0.032314      0.020627     -0.041791
Sc	      6.23245      2.11359      4.32470         0.001920     -0.006958      0.105609
Mn	      2.09933      2.16205      0.11494         0.019512      0.040225      0.032251
Mn	      6.23184      4.24534      2.12223        -0.114635      0.081827     -0.046572
Mn	      6.39148      6.35148      8.42062        -0.015592     -0.040647      0.004246
Cr	      4.22304      6.33223      6.30760        -0.007039      0.047099     -0.062039
Fe	      8.36229      4.29454      4.37920         0.010714     -0.050215      0.018055
Fe	      2.10853      2.28097      4.19829         0.010940     -0.098319     -0.138030
Co	     10.50051      8.55988     10.63653         0.090911     -0.031985      0.061197
Cu	      4.28051      4.17414      8.33729         0.023839      0.005495      0.004120
O	      4.19963      4.38043      6.21158        -0.006582     -0.028908      0.041027
O	      2.15917      2.17123      2.08711         0.054145      0.004712      0.214822
O	      4.36955      4.23719      2.18144         0.027246     -0.008898      0.010181
O	      4.16105      2.03521      4.27803         0.034255      0.074411     -0.018725
O	      6.36873      4.24982      4.10834        -0.039799      0.002952     -0.040418
O	      6.44510      2.19637      6.34297        -0.105385      0.032694     -0.032373
O	      8.37085      4.14164      6.33164        -0.022555      0.038331      0.103784
O	      1.96247      4.20841      4.21942        -0.001182      0.121354     -0.020071
O	      4.27562      6.54608      4.29889        -0.075207      0.003369     -0.002528
O	      6.22177      6.35477      6.24452         0.013945     -0.008121      0.138350
O	      6.26070      4.40929      8.66296        -0.039737      0.041660     -0.001245
O	      8.35882      6.45780      8.45690         0.022992     -0.045524     -0.016410
O	      2.20471      6.51728      6.47979         0.025508     -0.099781      0.045378
O	      4.13084      8.40603      6.26467         0.051985     -0.040652      0.041553
O	      4.20000      6.24622      8.43589         0.034577      0.013487     -0.020644
O	      6.38281      8.33442      8.52050        -0.052527     -0.036813     -0.024802
O	      6.24583      6.33073     10.60936         0.038617      0.004811     -0.021666
O	      8.49072      8.56024     10.80728        -0.011034     -0.042830     -0.150851
