# total energy = -225.51530852 eV
 
CRYSTAL
PRIMVEC
0.047339 6.234319 6.274908 
6.305019 0.061677 6.261260 
4.242794 4.187023 0.000897 
PRIMCOORD
36 1
Li	      8.40178      2.15923      6.25523        -0.069553     -0.007239      0.015929
Li	      4.22770      2.12665      2.16416         0.017628      0.018977      0.010307
Li	      6.34662      8.35984     10.39383        -0.065684      0.012812     -0.032727
Li	     10.45864      6.34638      8.37146        -0.181362     -0.008142     -0.014974
Li	      4.23796      4.16345      4.13811        -0.048512     -0.089071     -0.019600
Li	      8.53560      6.28626      6.35357         0.048066     -0.016896      0.112573
Li	      8.50609      6.36883     10.25852         0.080417      0.027480     -0.102517
Li	      8.48852      8.26169      8.44966         0.014820     -0.194866     -0.001526
Li	      6.48978      6.27933      8.41907         0.174781      0.017103      0.026135
Sc	      6.45204      8.30125      6.35716         0.167426     -0.068567      0.117287
Mn	      6.26228      0.15219      6.28109         0.036560      0.088783      0.047429
Mn	      4.26846      6.25510     10.40358        -0.105594      0.267692     -0.024018
Mn	      6.33005      4.09559      6.38959         0.006372      0.044270      0.054574
Cr	      6.31583      4.21386      2.09209        -0.099487      0.022148     -0.061352
Fe	      2.14575      2.12765      4.07587         0.035806     -0.075887      0.166933
Fe	      4.24088      6.29036      6.27391        -0.067756     -0.055924      0.271511
Co	      6.32018      4.22831     10.42368        -0.273724     -0.041430     -0.216403
Ni	      8.42349      4.30346      8.37664         0.256154     -0.048176     -0.084658
O	      8.43900      6.25680      8.35096         0.039881      0.277599     -0.060299
O	      2.10200      2.07186      2.15413        -0.040959     -0.088096     -0.144170
O	      4.27976      4.19235      1.93848         0.069434      0.014098      0.196604
O	      4.12560      1.96911      4.18499         0.079360      0.007664      0.007122
O	      6.48472      4.22645      4.10928        -0.121999     -0.027412      0.144010
O	      6.33333      2.13477      6.20905         0.015661      0.025602      0.011622
O	      8.42004      4.21221      6.17722        -0.048892     -0.036393     -0.175050
O	      2.03260      4.12067      4.19139         0.571469      0.084227      0.156711
O	      4.29674      6.40803      4.27936        -0.024611     -0.004908     -0.184911
O	      4.26789      4.29351      6.19292        -0.053845     -0.057418     -0.060360
O	      6.24806      6.21699      6.23366         0.062155      0.024384     -0.006100
O	      6.39334      4.23123      8.48665        -0.241152     -0.092711     -0.597277
O	      2.16564      6.24656      6.33715         0.114103      0.029691     -0.027562
O	      4.30608      8.33910      6.14781         0.114119      0.006844      0.432842
O	      4.14676      6.29740      8.37074         0.019517     -0.032206      0.093090
O	      6.35015      8.45175      8.33949         0.029152      0.007034      0.083243
O	      6.21250      6.21135     10.57107        -0.006287      0.067178     -0.180126
O	      8.64603      8.53905     10.42496        -0.503462     -0.098243      0.045709
