# total energy = -223.81913635 eV
 
CRYSTAL
PRIMVEC
0.083398 6.273547 6.235423 
6.452902 0.070466 6.249431 
4.342740 4.232007 0.006655 
PRIMCOORD
36 1
Li	      6.50150      6.40394     12.29366        -0.029855      0.050270      0.067201
Li	      4.52647      6.26595     10.47543         0.046229      0.036745     -0.103037
Li	      6.68560      8.25167     10.39283         0.172472     -0.055896     -0.068080
Li	      8.52783      4.38489      8.36421        -0.022842     -0.127990      0.000178
Li	      4.28186      4.23214      4.23775        -0.058994      0.018806      0.002471
Li	      8.46999      6.36751     10.39263        -0.003098      0.015415      0.034508
Li	      2.27170      4.24393      6.16546         0.079833      0.036976      0.025886
Li	      8.66381      8.41748      8.40225         0.033976      0.068043     -0.029157
Li	      6.69409      6.30067      8.49488        -0.027078      0.060566     -0.085211
Sc	      4.40684      2.19226      2.15015        -0.042316     -0.001452      0.055872
Mn	      6.59044     10.48381      8.37963         0.029138      0.085239      0.115328
Mn	      6.50366      6.39595      4.21675         0.094979     -0.214708     -0.016477
Mn	      4.32516      6.28749      6.22155         0.139825     -0.104778      0.043965
Cr	      6.48974      4.25942      6.26320        -0.007252      0.049793     -0.050649
Fe	      8.70916      8.49651     12.27581        -0.015072     -0.026829      0.264511
Fe	     10.68018      6.39632      8.34939         0.213187     -0.161665      0.025697
Cu	      8.70295      6.28743      6.23299        -0.025025     -0.009983      0.016219
Ni	      6.52459      4.36917     10.34830        -0.051588     -0.131532      0.007413
O	      6.53868      6.33962     10.38655        -0.048309      0.140914      0.036557
O	      2.17049      1.98790      2.23143        -0.007471      0.018386      0.025504
O	      4.51414      4.27869      2.07487         0.042056     -0.027786      0.004877
O	      4.10810      2.15430      4.26140        -0.064317     -0.003095     -0.059806
O	      6.51760      4.44147      4.27093        -0.069025      0.005513      0.006863
O	      6.61670      2.23606      6.29697         0.109524     -0.043616     -0.059014
O	      8.53058      4.20223      6.29494         0.010047      0.078817     -0.028575
O	      2.14780      4.03648      4.15144         0.068726      0.073188      0.017077
O	      4.51784      6.38144      4.20101         0.006588     -0.140463      0.078285
O	      4.45109      4.37371      6.21944        -0.010486      0.000784      0.055243
O	      6.31961      6.29829      6.17274        -0.038962      0.091637     -0.002274
O	      6.50120      4.11729      8.27719         0.010335      0.207633     -0.064005
O	      8.78055      6.33056      8.16641        -0.251145     -0.000582      0.116611
O	      2.42721      6.36066      6.17046        -0.095969     -0.023854      0.022354
O	      4.29713      8.27419      6.28840        -0.018041      0.164984     -0.001607
O	      4.26083      6.33995      8.15612        -0.044389      0.008193     -0.095398
O	      6.49383      8.58360      8.36136         0.031861     -0.119220     -0.012082
O	      8.77064      8.46989     10.43110        -0.157547     -0.018450     -0.347247
