# total energy = -224.32845828 eV
 
CRYSTAL
PRIMVEC
0.025503 6.402186 6.233560 
6.274618 -0.000873 6.260052 
4.175779 4.278478 0.007004 
PRIMCOORD
36 1
Li	      4.17285      4.31725      0.09634        -0.005411      0.015840      0.080423
Li	      2.11139      6.45244      8.26379         0.032551     -0.016472     -0.015721
Li	      6.33402      8.55550     10.41793         0.047854      0.010256     -0.011012
Li	      0.11554      2.15347      2.08030         0.019341      0.045720     -0.012382
Li	      2.07441      4.19089      2.11383        -0.038230      0.011030     -0.000444
Li	      1.99761      2.17402      4.09137        -0.037151      0.017097     -0.003327
Li	      6.29286      4.25294     10.28617        -0.025301      0.004041     -0.096629
Li	      4.18363      6.42419      6.21104        -0.035572     -0.027256     -0.010365
Li	      4.23203      4.28394      8.35656        -0.000711     -0.041322      0.019974
Sc	      8.35560      6.41706     10.39067        -0.035194      0.007586     -0.044012
Mn	      4.15576      2.15814      2.09863         0.094802     -0.062409      0.167086
Mn	      8.39386     10.61821     10.42832         0.190881     -0.000539     -0.112277
Mn	      4.23272      4.27884      4.10714        -0.023046     -0.020328     -0.104210
Cr	      4.21759      2.15258      6.27901        -0.089532     -0.021225      0.119121
Fe	      6.30677      4.24360      6.30910        -0.023358      0.021662      0.215252
Fe	      6.21537      8.59533      6.22901         0.084438     -0.118369      0.058099
Cu	      2.13803      8.45565      6.25925        -0.057229     -0.063299      0.057816
Cu	      6.26355      6.40303      8.32360         0.018665     -0.031373      0.361657
O	      2.25733      2.12390      1.97104        -0.014715      0.033044      0.096714
O	      6.25054      4.39493      8.25657         0.003831     -0.066808     -0.235216
O	      4.20579      4.07757      2.17250        -0.045324      0.013442     -0.058415
O	      4.19874      2.28978      4.13058         0.009767     -0.049091     -0.024551
O	      6.41691      4.29042      4.26350         0.076273     -0.001435      0.005023
O	      6.22437      2.25096      6.34068         0.004889     -0.025765     -0.048877
O	      8.34257      4.44220      6.17083         0.091916      0.142510      0.016396
O	      2.02487      4.28067      4.25693        -0.023737     -0.079652     -0.085204
O	      4.16065      6.20482      4.07426         0.047768      0.003566      0.002418
O	      4.20630      4.18889      6.14404        -0.030478      0.055717      0.037527
O	      6.34813      6.42280      6.31809         0.096769      0.066322     -0.222706
O	      8.26920      6.44517      8.27875         0.195643      0.017343     -0.231367
O	      2.10622      6.25457      6.21620        -0.018748     -0.031176      0.069355
O	      4.23157      8.51462      6.42669        -0.036944     -0.020038      0.044524
O	      4.24027      6.56414      8.43636        -0.184567      0.066225      0.085717
O	      6.16071      8.46473      8.27448        -0.051956      0.042659     -0.135181
O	      6.20698      6.40484     10.34876        -0.272145      0.033154      0.111808
O	      8.40870      8.47954     10.55174         0.033964      0.069342     -0.097012
