# total energy = -223.26683407 eV
 
CRYSTAL
PRIMVEC
0.015229 6.243383 6.195654 
6.350786 0.017801 6.192946 
4.249640 4.176251 -0.003992 
PRIMCOORD
36 1
Li	      6.28683      4.20782      2.14442        -0.075849     -0.015032     -0.006798
Li	      4.21759      2.14068      2.10764        -0.021298      0.021199     -0.002459
Li	      4.27868      6.24666      2.16550        -0.021033     -0.004906     -0.042408
Li	      2.12776      4.15330      2.17126         0.017010      0.013130     -0.042768
Li	      4.19066      4.20962      4.02027         0.010047     -0.018906      0.003774
Li	      4.17502      2.20349      6.22847         0.028654      0.021320     -0.021093
Li	      0.11904      4.07446      4.00374        -0.018597      0.056327     -0.067008
Li	      2.24612      4.10815      6.18074         0.075428      0.038773      0.016385
Li	      4.25277      4.13030      8.21793         0.024950      0.012403      0.015841
Sc	      4.25278      4.11048      0.17715         0.005951     -0.033296      0.059928
Mn	      4.24911      6.25000     10.21678         0.029606     -0.102279     -0.034857
Mn	      6.33378      8.38163     10.24001         0.072259     -0.128669     -0.049439
Mn	      2.19720      6.15734      4.03935        -0.062937      0.086097      0.052973
Cr	      2.11618      2.08581      0.07569        -0.034567     -0.049282      0.088743
Fe	      6.26872      4.19013      6.30712         0.094851     -0.107957     -0.160204
Fe	      4.25823      6.24255      6.24674        -0.098381      0.076302      0.132143
Ni	      2.07474      2.17774      4.00992         0.040644     -0.031466      0.097971
Ni	      6.42441      6.27417      8.21976        -0.002290      0.026260     -0.057048
O	      2.10452      2.08442      2.04769         0.001242     -0.014188     -0.092853
O	      4.25640      4.18977      2.05228        -0.036584      0.000264      0.007699
O	      4.38153      1.96341      4.13846         0.046976      0.079861     -0.011330
O	      6.38594      4.06929      4.16238        -0.118293     -0.047606     -0.023407
O	      6.41697      2.12692      6.07554        -0.011782     -0.042160     -0.049617
O	      8.48001      4.10841      6.01385        -0.036514      0.044598     -0.021445
O	      2.11108      4.27248      4.16540         0.030738      0.104542     -0.001071
O	      4.14440      6.28439      4.20696        -0.070137     -0.038437     -0.187086
O	      4.30568      4.26152      6.21187        -0.116239     -0.114479     -0.032726
O	      6.30347      6.22990      6.07344         0.030860      0.074757     -0.044164
O	      6.39409      4.24049      8.17336         0.039517     -0.157061      0.186971
O	      8.47637      6.26763      8.39376         0.177677      0.018054      0.045753
O	      2.16050      6.30338      6.08818        -0.035594     -0.037832     -0.004726
O	      4.12615      8.28014      6.19986         0.021155      0.058727     -0.015438
O	      4.31544      6.24269      8.29365        -0.076532      0.021817      0.081710
O	      6.38384      8.32421      8.39840         0.014158      0.141161      0.100237
O	      6.48206      6.38198     10.30720         0.109650      0.075037      0.089677
O	      8.34169      8.33731     10.37969        -0.034744     -0.027071     -0.011863
