# total energy = -227.26486392 eV
 
CRYSTAL
PRIMVEC
-0.001400 6.425849 6.295657 
6.216522 0.005088 6.289166 
4.158029 4.293242 -0.010571 
PRIMCOORD
36 1
Li	      4.22722     10.62817      6.39565         0.028304     -0.070307      0.035607
Li	      2.03136      6.44492      8.33223         0.003879      0.026509     -0.082922
Li	      4.11768      2.24386      2.00696         0.015112      0.048203     -0.072849
Li	      0.10252      2.10969      2.12981         0.004609     -0.010275      0.057791
Li	      2.15200      4.08192      2.14832        -0.055454     -0.097586      0.027797
Li	      2.03273      2.17167      4.14811        -0.016602      0.016081     -0.026171
Li	      6.14421      8.58547      6.34656        -0.043877      0.035086      0.008626
Li	      4.22192      6.45669      6.31045        -0.035975      0.010150     -0.000441
Li	      6.15019      6.46141      8.33181         0.001961      0.015024      0.016411
Sc	      8.24646      6.38231      6.40645         0.059761     -0.015414      0.115087
Mn	      4.22670      8.52637      4.21321         0.043999     -0.071338      0.066263
Mn	      2.05087      6.39147      4.20716         0.033558     -0.059956      0.065563
Mn	      4.13368      4.33665      8.38643         0.019895      0.026738      0.050274
Cr	      6.22145      8.59843     10.43409         0.027820     -0.026412     -0.026156
Fe	      2.11304      2.09401      0.17964         0.087058     -0.038360     -0.287001
Fe	      4.09607      0.09389      4.10524         0.047253     -0.000246     -0.001886
Fe	      4.13187      4.36586      3.96718        -0.049150     -0.053924      0.181906
Cu	      6.22606      4.32999      6.33318        -0.033302      0.014714      0.058147
O	      2.10321      2.12156      2.00647        -0.010312     -0.007438      0.330331
O	      4.12751      4.29142      2.13804        -0.035980     -0.024218     -0.379589
O	      4.22980      2.12122      4.21737        -0.028672      0.072913      0.040998
O	      6.19546      4.19350      4.09976         0.006908      0.006257     -0.034374
O	      6.27747      2.27747      6.17628        -0.054617      0.002594     -0.053822
O	      8.26207      4.27155      6.16268         0.042299      0.035502     -0.023703
O	      2.11444      4.25647      4.20535        -0.022157     -0.091501      0.006538
O	      4.03304      6.34820      4.20736         0.013573     -0.041345      0.008696
O	      4.19819      4.23569      6.46652        -0.021659     -0.013253      0.126859
O	      6.27253      6.31031      6.29312        -0.062451      0.064356      0.019684
O	      6.09862      4.28670      8.60218         0.025978      0.008284     -0.171061
O	      8.30075      6.63446      8.48897        -0.001724      0.061873     -0.101430
O	      2.03777      6.56484      6.11552        -0.005956     -0.063676      0.029246
O	      4.08590      8.57851      6.13590         0.073301      0.031303      0.173856
O	      4.14640      6.26559      8.46605         0.015202     -0.056093     -0.100260
O	      6.37440      8.58051      8.43761        -0.013491      0.009089      0.003823
O	      6.22842      6.53182     10.48436        -0.030415      0.169941     -0.020379
O	      8.27613      8.70073     10.38829        -0.028673      0.086723     -0.041458
