# total energy = -228.64215379 eV
 
CRYSTAL
PRIMVEC
0.039831 6.370662 6.326553 
6.269429 0.051377 6.314445 
4.208440 4.267350 0.005706 
PRIMCOORD
36 1
Li	      8.41650      8.53599     12.52812        -0.002443     -0.028000     -0.175755
Li	      4.25581      8.47393      8.49401         0.036337     -0.021002      0.154760
Li	      4.25846      6.37309     10.47560         0.028955     -0.029038     -0.038669
Li	      6.37002      8.46806     10.52253         0.072298     -0.134775     -0.048354
Li	      4.18548      6.38556      2.15105        -0.037873      0.024861      0.044715
Li	      4.21449      4.26886      4.22137         0.009412     -0.019149      0.037024
Li	      8.40974      6.54234     10.51040         0.021868      0.067761     -0.031000
Li	      4.19971      6.40666      6.34127        -0.031952      0.012757      0.004050
Li	      8.41927      8.55280      8.50280         0.018003     -0.013358      0.046088
Sc	      2.23761      6.38818      8.46693         0.016860     -0.020109     -0.086066
Mn	      2.09199      2.14884      4.20211        -0.066532      0.142864      0.062669
Mn	      6.27656      4.23965      6.35106        -0.066591     -0.053762      0.037228
Mn	     10.42473      8.54972     10.51850         0.121915      0.075786     -0.010842
Cr	      6.31198      6.41859     12.59876         0.032808      0.018150     -0.059009
Fe	      2.20120      4.29829      2.12113        -0.129627     -0.051317      0.087288
Fe	      4.22797      2.18982      6.29449        -0.017980     -0.065197      0.128850
Fe	      6.36008      8.56122      6.39761        -0.002687      0.010324     -0.071059
Ni	      6.23037      6.45276      8.49673         0.041078     -0.014345     -0.017837
O	      2.11103      2.18124      2.28087         0.004785      0.002871      0.086372
O	      4.17366      4.27723      2.01065         0.120292      0.021317      0.015665
O	      4.01438      2.15886      4.31057        -0.084262     -0.037958     -0.158916
O	      6.25151      4.48823      4.22551        -0.025223      0.100968     -0.111025
O	      6.21576      2.09016      6.24717         0.066767     -0.087426     -0.095348
O	      8.43520      4.33304      6.41339         0.052003     -0.045401     -0.072657
O	      2.02716      4.13603      4.19762         0.034789     -0.099010      0.049783
O	      4.34382      6.55967      4.23190         0.066083     -0.017461     -0.002609
O	      4.13125      4.19595      6.31000        -0.020236      0.014440     -0.001927
O	      6.33444      6.48304      6.22318        -0.054124     -0.004511     -0.099018
O	      6.35602      4.32793      8.51307         0.017792     -0.091936      0.189246
O	      8.32017      6.32413      8.35641         0.091845      0.053893     -0.024086
O	      2.06201      6.29426      6.34604        -0.010955      0.096701      0.017952
O	      4.31139      8.60689      6.17710        -0.057284     -0.035090     -0.047894
O	      4.21831      6.42264      8.39523        -0.192280      0.020277      0.020440
O	      6.30649      8.53588      8.38150        -0.013636      0.143047      0.148715
O	      6.30978      6.25155     10.57391        -0.008768      0.014804      0.063089
O	      8.58894      8.51761     10.54329        -0.031438      0.048026     -0.041864
