# total energy = -92.44845918 eV
 
CRYSTAL
PRIMVEC
-2.034295 4.049012 -2.031490 
2.008562 4.023106 2.005604 
2.059881 0.012921 -6.094132 
PRIMCOORD
16 1
Li	      0.08208      3.96789     -4.07164        -0.249182      0.014909     -0.182461
Li	      1.95292      5.94007     -3.96753         0.068748      0.332252     -0.137807
Li	      1.92035      3.96732     -5.89538         0.106818     -0.007977     -0.384804
Li	      2.00300      1.98519     -3.98298         0.023178     -0.342084     -0.050788
Mn	      3.95386      3.95749     -3.97187         1.909109      0.040100     -0.559885
Mn	     -0.00195      5.94055     -2.01555        -0.833709      1.112464     -0.200846
Ni	      0.01464      1.98674     -2.00661        -0.477364     -0.435048     -0.132394
Ni	      2.01461      3.95819     -2.03744         0.244971     -0.075511      0.937514
O	      0.00629      3.97792     -6.11746        -0.092630      0.015797     -0.618144
O	      1.83878      5.90663     -1.97557         1.040149      0.864909     -0.463541
O	      2.14261      3.96219     -3.98643        -0.717529     -0.020165     -0.718486
O	      1.95650      3.85266      0.04966         0.078211     -0.063695      0.926357
O	      1.94981      2.00807     -1.86709         0.994295     -0.950903     -0.465035
O	      0.02028      6.05473     -0.12718        -0.702899      0.403854      1.066710
O	     -0.07674      4.06090     -1.98116        -0.689390     -0.347401     -0.130676
O	      0.10477      1.85977     -0.04424        -0.702776     -0.541501      1.114287
