# total energy = -231.72639227 eV
 
CRYSTAL
PRIMVEC
0.023904 6.300571 6.317013 
6.348772 0.015161 6.325721 
4.245953 4.219624 -0.003334 
PRIMCOORD
36 1
Li	     10.49318      4.34349      6.39398         0.009649      0.063206      0.039533
Li	      6.27286      4.26534      2.18233        -0.039541     -0.016969      0.003411
Li	     10.55903      6.30514      8.40783         0.002316     -0.014020     -0.024240
Li	      8.48771      4.28734      8.40008        -0.000245      0.020650     -0.004993
Li	      4.24473      4.23863      4.13483        -0.051941     -0.002716     -0.024329
Li	      8.54812      6.22769      6.37266         0.007274     -0.021087      0.023801
Li	      6.39536      4.20965      6.39676         0.002662     -0.016540      0.027089
Li	      6.38166      4.19075     10.39829         0.034629     -0.078962     -0.091781
Li	      6.41846      6.19048      8.46957         0.023524     -0.016884      0.016893
Sc	      6.38902      8.41230      6.32192        -0.027872     -0.011289     -0.002786
Mn	      6.33772      2.17728      4.23671        -0.017596      0.052865      0.052256
Mn	      8.49847      6.28631     10.47073         0.027288     -0.042694      0.026150
Mn	      4.36031      4.17811      8.41915        -0.009457     -0.040954     -0.012817
Cr	      4.29733      6.30892     10.54071         0.000510     -0.002043      0.025211
Fe	      8.38969      2.21963      6.38868         0.101109     -0.085184      0.063009
Fe	      4.18381      2.27793      2.12730         0.056587     -0.204890      0.000604
Fe	      6.27215      6.29950      4.15207         0.058686      0.002866     -0.049696
Fe	      4.29877      6.27027      6.34759         0.006695     -0.017615     -0.042099
O	      2.15321      2.09381      2.08925        -0.055785      0.003567      0.054582
O	      4.28565      4.11798      2.09951        -0.065659      0.273864      0.003367
O	      4.10821      2.01088      4.13299         0.067712      0.043009      0.071100
O	      6.48353      4.18713      4.19764         0.014825      0.006343      0.004112
O	      6.43651      2.13006      6.19643        -0.111470      0.032519     -0.055729
O	      8.50250      4.15677      6.22968         0.015523      0.113647     -0.056945
O	      2.07247      4.16171      4.24578        -0.011208      0.044183      0.021555
O	      4.30760      6.27538      4.28087        -0.133281      0.004886      0.019985
O	      4.18012      4.28439      6.33819         0.026950     -0.117586     -0.064196
O	      6.30026      6.34856      6.19130         0.081417     -0.007191      0.047747
O	      6.20114      4.20319      8.42002         0.038523     -0.026012     -0.006312
O	      8.50197      6.37126      8.59103        -0.046729     -0.037388     -0.001194
O	      2.22363      6.33235      6.12576        -0.044546      0.049765      0.030628
O	      4.24255      8.31367      6.45813        -0.046487      0.005516     -0.130476
O	      4.28847      6.28797      8.42311         0.017083      0.057919      0.101846
O	      6.45922      8.45012      8.49524         0.022667     -0.010727     -0.003170
O	      6.34533      6.51641     10.54148         0.024691     -0.027325     -0.029781
O	      8.58201      8.47976     10.62974         0.021496      0.023271     -0.032334
