# total energy = -223.94207549 eV
 
CRYSTAL
PRIMVEC
-0.016513 6.352622 6.023881 
6.395551 -0.047433 6.054964 
4.226359 4.218152 0.005861 
PRIMCOORD
36 1
Li	      0.04592      6.39754      6.01050         0.030725     -0.009225      0.011032
Li	      8.39836      2.07335      6.06158        -0.061691     -0.002189      0.038060
Li	      4.25050      8.44927      7.99597        -0.006821      0.041405     -0.026419
Li	      6.30202      2.13810      7.98388        -0.010497     -0.027663      0.037373
Li	      4.35960      2.13410      6.13516        -0.008183     -0.003661      0.008727
Li	      6.34816      4.03768      6.15229        -0.004456     -0.013545     -0.022327
Li	      8.51504      6.35554     10.01560         0.044086      0.023485      0.066466
Li	      8.54959      8.27333      8.05885        -0.009631     -0.044772     -0.066989
Li	      6.45600      6.30167      8.03727         0.060204     -0.005692     -0.091285
Sc	      8.45570      4.28395      7.93870         0.058432      0.045443      0.054771
Mn	      4.26706      6.30945     10.06352        -0.093612      0.089247      0.011079
Mn	      6.39832      8.37271     10.05792        -0.101979      0.064045     -0.085221
Mn	      2.14623      2.08872      4.03130         0.040437      0.021842      0.124243
Mn	      4.25005      4.20738      4.03179        -0.051967     -0.014628      0.156400
Cr	      4.22815      6.34111      6.11145         0.113770     -0.076393     -0.014690
Co	      6.34908      8.43503      6.06616         0.017455     -0.042348      0.162415
Cu	      6.33351      4.20847     10.04096        -0.011854      0.036784      0.042736
Ni	      2.07741      6.34981      7.99414        -0.048382      0.109249      0.020737
O	      6.39063      2.05430      5.88266         0.003962     -0.027894     -0.056946
O	      2.12538      2.10181      2.14186        -0.002941      0.079252     -0.065020
O	      4.23823      4.20586      2.15099        -0.098860     -0.007476     -0.042599
O	      4.21761      2.02857      4.07077         0.040615     -0.011599     -0.036888
O	      6.40438      4.22928      4.08110         0.030880     -0.088310      0.004263
O	      8.48385      4.16986      5.93084         0.001396     -0.043963      0.069073
O	      2.20853      4.11697      4.12375         0.109643      0.018652     -0.335569
O	      4.36392      6.25010      4.11107        -0.031057     -0.099022     -0.004600
O	      4.12130      4.28170      5.97552         0.001917      0.086281     -0.025562
O	      6.26793      6.46180      5.98440        -0.074039      0.034812      0.009952
O	      6.40901      4.18419      8.12880        -0.028603     -0.012481     -0.042035
O	      8.50280      6.25040      8.10064        -0.009986     -0.049910      0.041264
O	      2.20618      6.17373      5.99489         0.039725      0.023032     -0.148742
O	      4.38535      8.35577      5.94493         0.026812      0.000505      0.008588
O	      4.14851      6.37458      8.12322         0.029806      0.027171      0.041028
O	      6.31436      8.51351      8.02607        -0.025556     -0.097335      0.282394
O	      6.17369      6.37945     10.04036        -0.044470     -0.029453     -0.054052
O	      8.39696      8.59606     10.06886         0.074719      0.006354     -0.071655
