# total energy = -223.31312338 eV
 
CRYSTAL
PRIMVEC
-0.030931 6.381934 6.144906 
6.110926 -0.003504 6.119183 
4.086793 4.250337 -0.016264 
PRIMCOORD
36 1
Li	      6.16301     10.54190      8.19530         0.026457      0.025856      0.026018
Li	      4.04714      6.28982     10.10075         0.007983      0.027803     -0.040083
Li	      6.12655      8.47854     10.09430        -0.053880      0.003130      0.043280
Li	      2.06380      4.29816      2.05511        -0.043766      0.090004      0.046459
Li	      2.05752      2.08934      4.03800         0.027705     -0.008472      0.037411
Li	      8.10443      6.40795     10.12278        -0.002371     -0.042129      0.014793
Li	      6.08429      8.57950      6.22470         0.000012      0.030378     -0.112704
Li	      7.95870      8.43521      8.28681         0.082469     -0.047919      0.001040
Li	      6.08524      6.53864      8.17342        -0.005170     -0.080226      0.034395
Sc	      6.15100      4.24514     10.11472         0.145473      0.014562      0.140742
Mn	      0.02954      6.37582      6.15346        -0.047111     -0.116313     -0.064648
Mn	      2.00709      8.48905      6.12802         0.313315      0.149340     -0.422891
Mn	      4.03421      4.24844      4.04105        -0.038254      0.012576      0.143971
Mn	      6.12404      4.26751      6.13046        -0.223512      0.352369     -0.091387
Cr	      8.11067      6.37693      6.13732        -0.052736      0.021940     -0.433455
Co	      4.08092      8.45163      8.20510         0.288068     -0.352647      0.143971
Ni	      4.07989      6.37664      2.07228        -0.036074     -0.043801      0.086719
Ni	      4.04039      6.36584      6.20196         0.048642     -0.094060     -0.205648
O	      2.09590      2.15584      1.89049         0.399144      0.062449      0.298837
O	      4.09483      4.19781      2.07451         0.001047      0.183800     -0.119631
O	      4.05361      2.32226      4.06206        -0.016501      0.229693      0.752996
O	      5.99157      4.25912      4.22077        -0.016448     -0.026932     -0.052887
O	      6.09900      2.24168      6.14022        -0.339028      0.048458     -0.073540
O	      8.12028      4.31183      6.07335        -0.057757      0.237676      0.038417
O	      2.12576      4.24113      4.11309         0.053635     -0.046242     -0.031325
O	      4.07933      6.25514      4.11790         0.050566      0.017566     -0.157764
O	      4.14005      4.19030      6.01939         0.000498      0.017789      0.103041
O	      6.14412      6.17587      6.13597        -0.034492     -0.094989      0.011232
O	      6.09721      4.19543      8.07162         0.048767      0.026781      0.003900
O	      8.19305      6.39118      8.04934        -0.239686      0.013794      0.238066
O	      1.96261      6.50531      6.15084        -0.281499     -0.828955      0.092382
O	      4.01352      8.44274      6.17335         0.549619      0.440429     -0.854849
O	      4.04511      6.54421      8.14339        -0.039428     -0.301869      0.375000
O	      5.95852      8.50380      8.16009        -0.418520      0.070580      0.043511
O	      6.09930      6.30282     10.37816        -0.007740     -0.004205     -0.049821
O	      8.17963      8.49972     10.31815        -0.089427      0.011789      0.034454
