# total energy = -224.84470973 eV
 
CRYSTAL
PRIMVEC
-0.043704 6.489677 6.325075 
6.265956 -0.005434 6.285799 
4.141801 4.264268 0.032375 
PRIMCOORD
36 1
Li	      6.26475     10.61064      8.47594         0.063793     -0.091954      0.090091
Li	      4.31195      8.44299      8.41596         0.052418     -0.122262     -0.053285
Li	      4.19631      6.40175     10.36515        -0.093669      0.020235      0.035828
Li	      6.17730      8.65155     10.28910        -0.014351      0.064686     -0.020413
Li	      8.31637      4.31695      8.39939        -0.079404      0.011536     -0.055758
Li	      6.25472      8.61977      6.50136         0.003808     -0.024852      0.031367
Li	      4.11144      6.38715      6.59644        -0.006236     -0.023856      0.060965
Li	      8.16237      8.69419      8.48682         0.025864      0.043184      0.005587
Li	      6.10689      6.63965      8.36163         0.032066      0.085569     -0.024378
Sc	      2.10561      2.12910      4.17213         0.165347     -0.388573      0.164545
Mn	      4.12197     10.71690      6.38893        -0.180340     -0.034951      0.159190
Mn	     10.35853      6.40038      8.41799        -0.106868      0.258255     -0.084284
Mn	      4.15373      2.22575      6.29358        -0.131766     -0.003371     -0.064805
Mn	      6.23864      4.38400     10.47413         0.211999     -0.059317      0.026338
Cr	      2.04869      8.60095      6.36600         0.136132      0.080153     -0.080660
Co	      4.13108      4.29753      4.20385        -0.149276     -0.140322     -0.164168
Co	      6.22923      4.33316      6.35000        -0.090186      0.122042     -0.151746
Cu	      8.27925      6.43876     10.51378        -0.062320      0.089123      0.032589
O	      4.13825      6.47808      8.47987         0.059789      0.020040      0.042943
O	      6.21783      8.60282      8.41362        -0.033985     -0.005404     -0.021924
O	      1.90444      2.19740      2.07805        -0.048970      0.016605     -0.073198
O	      4.08472      4.46131      2.14457        -0.042086      0.017441     -0.228809
O	      4.14752      2.33547      4.32685        -0.118467     -0.389951     -0.084356
O	      6.05885      4.32722      4.26303         1.215472      0.369072     -0.096897
O	      6.28378      2.19133      6.44321        -0.056465     -0.044970      0.082226
O	      8.42468      4.19128      6.24801         0.196387     -0.152893      0.082123
O	      2.01949      4.31008      4.22424        -0.715746      0.097625     -0.128294
O	      4.04757      6.27771      4.07418        -0.099560      0.527232     -0.109932
O	      4.18561      4.31048      6.11817        -0.191968      0.134357      0.529546
O	      6.31110      6.36030      6.30092         0.105336     -0.021491     -0.032479
O	      6.22425      4.09989      8.49859         0.048294     -0.162840      0.036647
O	      8.43421      6.41733      8.22803         0.104193     -0.057248      0.205654
O	      1.89088      6.61715      6.43014         0.030228      0.042748     -0.088920
O	      4.04180      8.61508      6.22294        -0.046626     -0.072277      0.086828
O	      6.32982      6.50029     10.64833         0.016572     -0.184233     -0.120622
O	      8.44505      8.48453     10.64072        -0.199409     -0.019138      0.012462
