# total energy = -226.12397372 eV
 
CRYSTAL
PRIMVEC
0.060650 6.364435 6.254272 
6.286033 0.056530 6.257844 
4.203404 4.258056 0.024768 
PRIMCOORD
36 1
Li	     10.30896      4.22954      6.23835        -0.000721     -0.048220     -0.033218
Li	      8.43754      2.25977      6.24874         0.003811     -0.079977      0.035827
Li	      4.25446      8.54096      8.29313         0.001308     -0.015470     -0.033308
Li	      4.28884      0.11671      4.31454         0.017416      0.027873     -0.058522
Li	      6.22975      2.07674      4.26351         0.000341     -0.034255     -0.032429
Li	      8.40778      4.30134      8.28583        -0.015255      0.026469      0.033879
Li	      8.41309      6.30849      6.21325        -0.006306      0.011845      0.037982
Li	      6.26909      8.53453      6.30908        -0.009173      0.047135     -0.030621
Li	      6.36776      6.45362      8.45096         0.026051      0.031034      0.020434
Sc	      6.27800      2.13160      8.24344        -0.142490     -0.061148      0.052459
Mn	      2.17736      6.34489      8.30730        -0.035738     -0.208549     -0.179229
Mn	      2.19503      2.16740      4.17876        -0.043374     -0.012616      0.034533
Mn	      6.38968      4.28902      6.21154         0.004559     -0.023197      0.013229
Mn	      8.41023      8.55243      8.38084        -0.027588     -0.150998      0.057589
Cr	      6.32110      4.37181     10.48737         0.175619      0.009660      0.031157
Co	      8.32857      6.44071     10.54894        -0.052740     -0.023696     -0.471159
Co	      4.26235      6.39955      6.27401        -0.096444      0.096671      0.028976
Ni	      4.19592      4.17983      4.17798        -0.150720      0.225145     -0.002947
O	      2.10233      1.96237      2.16790        -0.058362      0.018614      0.139503
O	      4.36044      4.25986      2.07169         0.066354      0.102640     -0.067577
O	      4.07225      2.19732      4.17275        -0.110496     -0.177745      0.023886
O	      6.25520      4.24182      4.07302         0.110480     -0.030601     -0.070994
O	      6.29892      2.33623      6.26746        -0.000590      0.025870      0.109104
O	      8.26245      4.30787      6.34083        -0.025055      0.003255     -0.025914
O	      2.10185      4.33605      4.11412         0.032755      0.302080      0.086425
O	      4.34304      6.42822      4.27661         0.033293     -0.006302     -0.033150
O	      4.35296      4.41712      6.34005         0.014664      0.015106      0.078459
O	      6.23773      6.28447      6.19972         0.093359      0.020328     -0.122837
O	      6.18045      4.28755      8.42780        -0.013234     -0.058871     -0.051956
O	      8.40196      6.63306      8.39980         0.147263      0.119784     -0.159842
O	      2.33209      6.38754      6.31183         0.213076      0.090699      0.485655
O	      4.26559      8.33794      6.21552         0.005148     -0.031770      0.041377
O	      4.15061      6.27774      8.21222        -0.018821     -0.022374      0.061138
O	      6.50238      8.66013      8.34666         0.054793      0.069321      0.002625
O	      6.31439      6.32361     10.50103         0.082940      0.028818     -0.054566
O	      8.52718      8.52063     10.30417        -0.276123     -0.286559      0.054030
