# total energy = -221.75458184 eV
 
CRYSTAL
PRIMVEC
0.004922 6.265793 6.281224 
6.167958 -0.000477 6.286784 
4.116889 4.185877 -0.005411 
PRIMCOORD
36 1
Li	      6.15199      4.15768      2.10361        -0.007148     -0.018324      0.036082
Li	      4.17839      8.33902      8.37310         0.000993     -0.037787      0.036451
Li	      8.25939     10.41086     10.49765         0.010571     -0.021597      0.003468
Li	      8.23819      4.24234      8.34223        -0.004531     -0.007654     -0.001719
Li	      4.09794      4.19634      4.15013        -0.023714     -0.001350     -0.036940
Li	      8.25697      6.25665      6.30776        -0.006429     -0.009795     -0.015227
Li	      6.17930      4.15047     10.43065        -0.013523     -0.009212     -0.026854
Li	      2.07890      6.24143      4.15207        -0.022369     -0.004079     -0.012112
Li	      4.14329      4.16967      8.35637        -0.008389      0.012651     -0.036271
Sc	      2.14603      2.05513      4.12780         0.070276      0.011121     -0.010678
Mn	      2.06883      2.11016      0.01079        -0.018300      0.011015     -0.008557
Mn	      6.13614      2.13744      4.14276        -0.028260      0.003287     -0.063756
Mn	     10.19355      6.25883      8.42212        -0.043743      0.024703      0.000328
Mn	      2.11007      4.20295      6.29280        -0.012611     -0.047285     -0.000264
Cr	      6.16699      6.21698      8.42765         0.164590      0.022042     -0.048795
Cu	      4.07326      6.26582      6.31389         0.031493      0.041291      0.089733
Ni	     10.25131      4.18016      6.27949         0.021495      0.007115     -0.082058
Ni	      6.15432      4.17304      6.30133        -0.026258     -0.002297     -0.045067
O	      4.25926      6.25981      8.32502        -0.195098      0.009065     -0.064296
O	      1.93748      2.09674      2.03177        -0.037601      0.011594     -0.054996
O	      4.08922      4.37724      2.02023         0.001619      0.064214      0.097876
O	      4.19336      2.09717      4.17174        -0.016822      0.005229      0.036402
O	      6.17980      4.10726      4.21548         0.005250      0.007468     -0.072931
O	      6.24293      2.08836      6.39856         0.067582     -0.019742      0.112620
O	      8.23191      4.00865      6.28448         0.003352     -0.053429      0.009570
O	      2.04988      4.11884      4.39530        -0.016393     -0.004478      0.016374
O	      4.14097      6.28251      4.02233         0.000771     -0.009716     -0.024922
O	      4.08461      4.31956      6.27732        -0.044702     -0.088453     -0.036192
O	      6.12591      6.24247      6.31674         0.081005      0.085268     -0.010601
O	      6.16588      4.15762      8.35627         0.013457     -0.105770      0.099764
O	      8.27515      6.28377      8.33090         0.129777      0.008134     -0.012567
O	      2.07790      6.35776      6.31741        -0.084024      0.105722      0.015931
O	      4.03122      8.34811      6.28599        -0.062564     -0.015284      0.013623
O	      6.19502      8.25725      8.25858         0.015729      0.033664     -0.081446
O	      6.17628      6.42254     10.40944         0.001115     -0.005285      0.045516
O	      8.09568      8.35755     10.67986         0.053405     -0.002047      0.132507
