# total energy = -227.99729458 eV
 
CRYSTAL
PRIMVEC
0.052332 6.329759 6.151873 
6.392327 0.026016 6.178737 
4.279976 4.255531 -0.000884 
PRIMCOORD
36 1
Li	      4.33335     10.51205      6.14834        -0.008914      0.014622     -0.033751
Li	      8.62188      8.53113     12.31128        -0.023483      0.002039     -0.009453
Li	      4.25727      6.31199      2.07223         0.033133     -0.021118     -0.016858
Li	      2.24204      4.25582      2.03995        -0.001268      0.021732      0.001889
Li	      4.20900      4.29549      4.09588        -0.038677      0.009823      0.011299
Li	      4.37289      2.08630      6.12059         0.025300     -0.036264     -0.028128
Li	      4.39919      8.40001      4.30748         0.004286      0.075555      0.075874
Li	      2.06656      4.33668      6.05740        -0.030357      0.035608      0.051324
Li	      4.23644      6.41792      6.08620        -0.029777      0.003886      0.039952
Sc	      6.49192      6.34673      8.17923        -0.023642     -0.055418      0.055390
Mn	      4.23507      2.19692      2.00061        -0.061115     -0.007493      0.059314
Mn	      6.27852      6.48231      4.14950         0.020570      0.045353     -0.012506
Mn	      6.42257      4.17177      6.12190         0.217849     -0.031145      0.101613
Mn	      4.34143      4.20287      8.19811         0.088781      0.053046      0.034662
Cr	      2.24261      6.29904      4.16353         0.030435     -0.015578      0.158073
Fe	      2.02488      0.04899      1.92001         0.108493     -0.007024      0.131669
Co	      6.39936      2.15465      4.12670         0.039409     -0.110785      0.100930
Cu	      8.55577      4.28204      4.19039         0.159446     -0.009366      0.078306
O	      8.35644      4.24299      6.09619        -0.217704      0.012721      0.053508
O	      2.14532      2.01952      2.24063        -0.077304      0.061200     -0.036580
O	      4.38019      4.19307      2.01567        -0.161450     -0.082220      0.041905
O	      4.38559      2.08385      4.00856        -0.011216      0.031758     -0.043510
O	      6.30708      4.11100      4.17008        -0.187093     -0.020938     -0.055151
O	      6.40792      2.27178      6.03666        -0.005853      0.089941     -0.091531
O	      2.16245      4.29368      4.12526         0.021651      0.004222      0.002295
O	      4.28999      6.41423      4.10794        -0.033959     -0.050688      0.014343
O	      4.45715      4.21235      6.31642         0.038442     -0.025999     -0.015455
O	      6.42658      6.22355      6.07528        -0.027692     -0.043894      0.025536
O	      6.42833      4.28768      8.07252        -0.058534     -0.003638     -0.111027
O	      8.53993      6.41524      8.29740         0.036819     -0.054116     -0.022162
O	      2.22731      6.34533      6.18663        -0.027121      0.010579     -0.182845
O	      4.29665      8.46326      6.30843         0.003533      0.027275     -0.011011
O	      4.29387      6.34818      8.34049        -0.022592      0.091022     -0.237064
O	      6.47515      8.52293      8.28214         0.057855     -0.001996      0.052052
O	      6.59057      6.51729     10.28354         0.164756      0.058557     -0.072916
O	      8.44515      8.45085     10.17212        -0.003006     -0.071259     -0.109986
