# total energy = -92.74254057 eV
 
CRYSTAL
PRIMVEC
-2.044674 4.069671 -2.041854 
2.018809 4.043632 2.015837 
2.070390 0.012987 -6.125224 
PRIMCOORD
16 1
Li	      0.08291      4.00848     -4.11329        -0.173899      0.013529     -0.138196
Li	      1.97290      6.00084     -4.00812         0.049390      0.242047     -0.096259
Li	      1.93999      4.00791     -5.95570         0.071183     -0.009090     -0.277372
Li	      2.02349      2.00550     -4.02373         0.017411     -0.246532     -0.036774
Mn	      3.99431      3.99798     -4.01250         1.372652      0.028322     -0.422972
Mn	     -0.00197      6.00132     -2.03618        -0.587564      0.810890     -0.136773
Ni	      0.01479      2.00706     -2.02714        -0.333869     -0.314359     -0.076463
Ni	      2.03522      3.99868     -2.05829         0.157266     -0.056787      0.695771
O	      0.00635      4.01861     -6.18004        -0.029358      0.010440     -0.485397
O	      1.85760      5.96706     -1.99578         0.722664      0.654906     -0.381473
O	      2.16453      4.00272     -4.02721        -0.480759     -0.016579     -0.550189
O	      1.97651      3.89208      0.05016         0.054529     -0.075140      0.713243
O	      1.96975      2.02861     -1.88619         0.747907     -0.722612     -0.319518
O	      0.02048      6.11667     -0.12848        -0.555202      0.312848      0.759311
O	     -0.07753      4.10245     -2.00143        -0.522220     -0.220931     -0.093453
O	      0.10584      1.87879     -0.04469        -0.510132     -0.410951      0.846514
