# total energy = -228.00235490 eV
 
CRYSTAL
PRIMVEC
0.044290 6.195433 6.332291 
6.367982 0.026310 6.350702 
4.264523 4.161842 -0.001836 
PRIMCOORD
36 1
Li	      4.21557      2.13685      2.24009        -0.058401     -0.044853     -0.032457
Li	      6.25769      2.07835      4.18710        -0.002656     -0.024375      0.066856
Li	     10.54419      6.24790      8.49454        -0.076235     -0.009396     -0.003391
Li	      2.20630      4.19538      2.22114        -0.002488      0.119006     -0.041508
Li	      2.20405      2.13292      4.14154        -0.034157     -0.009059     -0.018232
Li	      4.12236      4.05466      4.19765        -0.086647     -0.065742     -0.092203
Li	      8.56215      6.22121      6.35679         0.028002     -0.057065      0.084191
Li	      8.58722      6.17303     10.41049        -0.008452     -0.002944     -0.067840
Li	      6.53702      6.29786      8.36788         0.058501     -0.064184     -0.043656
Sc	      2.10446      2.09563      0.10060        -0.064406      0.037247      0.192486
Mn	      4.23580      4.19375      0.07177        -0.030883      0.055563      0.056011
Mn	      4.28166      0.10852      4.20086         0.031624      0.057728     -0.012969
Mn	      6.46951      4.15484     10.48242         0.169809      0.011603     -0.019246
Mn	      4.30727      6.20218      6.30456         0.009881      0.140434      0.065851
Cr	      6.35277      4.16842      6.33599         0.188363     -0.037779     -0.050126
Fe	      6.33522      4.16429      2.25207         0.096077      0.056483     -0.036553
Co	      8.52363      8.23744      8.44779        -0.131423      0.888956      0.086272
Ni	      2.17860      4.09345      6.29983         0.035528     -0.071936     -0.141798
O	      2.14172      1.94993      2.10857         0.000766      0.098097     -0.075444
O	      4.35032      4.15448      1.98512        -0.036922     -0.063765     -0.016360
O	      4.27459      1.96471      4.20558         0.041149      0.033406      0.028455
O	      6.54509      4.13195      4.24381         0.022909     -0.025756      0.122562
O	      6.42362      2.07642      6.30884         0.060338      0.026319     -0.017139
O	      8.41717      4.18415      6.44035        -0.012860     -0.057883     -0.052859
O	      2.00856      4.15102      4.23274        -0.018194      0.020849      0.001105
O	      4.25336      6.34971      4.38595        -0.002656     -0.007907      0.075617
O	      4.32468      4.28032      6.18714         0.059070     -0.058753      0.350367
O	      6.21263      6.17269      6.34499        -0.092554     -0.039079     -0.085392
O	      6.21188      4.15583      8.34451        -0.192939     -0.120153     -0.062442
O	      8.50596      6.40127      8.44274        -0.022801     -0.660116     -0.000957
O	      2.26961      6.17685      6.38643         0.048232      0.061242     -0.017252
O	      4.32625      8.24760      6.41939        -0.077461     -0.047758      0.000728
O	      4.22210      6.06994      8.33120        -0.019343      0.162605     -0.069081
O	      6.58789      8.34776      8.37233         0.229455     -0.237836      0.233094
O	      6.33623      6.17074     10.78689        -0.006046      0.031650      0.053647
O	      8.74455      8.45709     10.62333        -0.102182     -0.094850     -0.460337
