# total energy = -225.72550323 eV
 
CRYSTAL
PRIMVEC
0.008437 6.335321 6.230464 
6.340465 0.003947 6.235074 
4.222182 4.221816 0.007431 
PRIMCOORD
36 1
Li	      4.33862     10.46265      6.36003         0.005960     -0.073823     -0.053057
Li	      2.04517      2.05424      0.15202        -0.035697      0.001417     -0.042631
Li	      2.05349      0.20889      2.00338         0.040215      0.011717      0.008564
Li	      4.06343      2.18965      2.05041         0.006887     -0.001354     -0.044298
Li	      0.10404      2.04423      2.02068        -0.030850      0.024924      0.003849
Li	      2.21434      2.08086      4.03451         0.011994     -0.033959      0.035671
Li	      4.24005      2.13071      6.20693         0.011359     -0.035241      0.004937
Li	      4.20343      8.41880      4.28097        -0.018771      0.001794      0.074257
Li	      6.34062      6.30634      8.27797         0.001446      0.020427     -0.007313
Sc	      6.28312      2.13698      4.13648         0.058068      0.039622     -0.053549
Mn	      4.31392      6.38598     10.39859        -0.057808     -0.036793      0.025964
Mn	      6.36910      4.26952      6.22643         0.133026      0.022718     -0.147019
Mn	      2.12023      6.30079      4.17673        -0.085559      0.077866      0.044797
Mn	      6.28867      8.35804      6.25350        -0.120578      0.022516      0.074442
Cr	      2.12325      4.17130      2.07485         0.021603      0.010560     -0.057317
Fe	      4.29613      4.18521      8.30463        -0.037089     -0.042316      0.014244
Cu	      4.21868      4.21438      4.05227         0.089214      0.007443      0.036043
Ni	      4.21474      6.35967      6.26959         0.000164      0.074984      0.106752
O	      4.09376      4.23907      2.10131        -0.073454      0.035309      0.001878
O	      2.09141      2.23407      2.08051        -0.036415      0.043871      0.029562
O	      4.27671      2.20144      4.12736        -0.044491     -0.051955     -0.070599
O	      6.55781      4.25409      4.25589        -0.093762      0.004718      0.038218
O	      6.33251      2.34853      6.17625        -0.026013      0.018907      0.009801
O	      8.30400      4.29095      6.23433        -0.041307      0.016014      0.034196
O	      1.95282      4.36548      4.12868         0.012206     -0.000583      0.066366
O	      4.01581      6.20974      4.20483        -0.067988      0.005333     -0.098290
O	      4.26659      4.24533      6.23986        -0.039825     -0.129510     -0.022977
O	      6.28495      6.24316      6.19937         0.137748     -0.118761     -0.029980
O	      6.33618      4.23283      8.12693         0.051643      0.022811      0.037338
O	      8.42679      6.31914      8.47737        -0.018282     -0.032268      0.028149
O	      2.13609      6.28971      6.10306        -0.050066      0.078169     -0.008169
O	      4.42341      8.35995      6.29976         0.090357      0.126543      0.008154
O	      4.27349      6.19904      8.45627         0.016775     -0.013684     -0.025039
O	      6.51615      8.43260      8.24485        -0.024559     -0.046215     -0.038915
O	      6.29869      6.39192     10.48887         0.231429     -0.002617     -0.015800
O	      8.49818      8.28433     10.34117        -0.017583     -0.048586      0.031769
