# total energy = -225.87349454 eV
 
CRYSTAL
PRIMVEC
0.032685 6.123312 6.351555 
6.405432 0.021515 6.363161 
4.286312 4.105720 -0.001843 
PRIMCOORD
36 1
Li	      0.07154      6.09429      6.35651         0.077882      0.058539      0.018685
Li	      6.33915      4.10871      2.17389         0.001505      0.007796      0.022623
Li	      4.39758      6.13072     10.56634         0.006409     -0.012625     -0.001196
Li	      4.20152      6.02550      2.21815        -0.005277     -0.064213      0.062412
Li	      2.28244      4.13135      2.17347         0.004931      0.014760      0.029438
Li	      4.27718      4.12588      4.09520         0.029815      0.023931     -0.022469
Li	      8.46399      6.09235     10.61342        -0.002687      0.012545      0.045132
Li	      2.15653      4.16213      6.28275         0.007594      0.050641     -0.092806
Li	      6.45641      6.14952      8.61975         0.030627      0.025213      0.053816
Sc	      6.42829      4.08210      6.38595         0.050105      0.033113     -0.189248
Mn	      2.20817      8.16788      6.35068        -0.369067     -0.156383     -0.017217
Mn	      4.33029      2.10710      2.16499         0.082470      0.075786      0.135209
Mn	      2.11308      2.06212      4.18293        -0.116944      0.057838      0.080156
Mn	      8.54739      6.12503      6.35469        -0.055394     -0.010031      0.090836
Cr	      4.27855      6.16454      6.33556        -0.083586      0.040407     -0.031345
Fe	      8.58390      8.21105      8.55006        -0.399000      0.054614      0.071907
Cu	      6.48180      8.12339     10.57110         0.111634     -0.009207     -0.038357
Cu	      6.46875      4.16571     10.52611        -0.077863      0.244603      0.064460
O	      2.02509      4.00192      4.21189         0.099117      0.026964      0.058149
O	      6.46926      6.15435     10.60464        -0.077380     -0.142059     -0.086961
O	      2.29963      2.04836      2.25182         0.024887      0.009598      0.010173
O	      4.31666      3.97343      2.12160        -0.045353     -0.102917     -0.000365
O	      4.05803      2.07020      4.34473         0.079297     -0.058446      0.224595
O	      6.37122      4.18080      4.28120         0.020450      0.224871      0.161500
O	      6.49714      2.01538      6.19625         0.123088     -0.031866      0.078775
O	      8.48651      4.04840      6.38768         0.103123      0.192987      0.008282
O	      4.46021      6.20638      4.27560        -0.200010     -0.276926      0.171076
O	      4.26371      4.10898      6.44934        -0.016985      0.058605      0.011915
O	      6.35773      6.18072      6.19143        -0.096580     -0.045666     -0.024968
O	      6.27640      4.09772      8.42971         0.181174     -0.016776     -0.070028
O	      8.56110      6.21764      8.29208         0.005517     -0.096385     -0.310495
O	      2.30465      6.26685      6.31588         0.108262     -0.027989      0.004585
O	      4.21003      8.17051      6.42261         0.202639     -0.200140     -0.193620
O	      4.31846      6.18604      8.36448         0.061603      0.005070     -0.215271
O	      6.40994      8.18785      8.63822        -0.043997     -0.037913     -0.080087
O	      8.75150      8.21390     10.52033         0.177995      0.071661     -0.029292
