# total energy = -232.72044979 eV
 
CRYSTAL
PRIMVEC
0.006245 6.329121 6.265686 
6.317021 -0.008554 6.280499 
4.190067 4.208019 0.015486 
PRIMCOORD
36 1
Li	      4.20618      4.19553      0.09239         0.006236      0.010492     -0.022544
Li	      6.16530      4.14525      2.12397        -0.063384     -0.041683      0.024967
Li	      4.19775      2.26859      2.04674        -0.001454      0.033898      0.017554
Li	      6.33350      2.09913      8.33967         0.046204      0.020074     -0.013636
Li	      4.18563      4.22264      4.12129        -0.005628     -0.001608     -0.023040
Li	      4.31693      2.22953      6.22318         0.031761      0.118891     -0.020030
Li	      6.25051      4.10698      6.32215        -0.001126     -0.058875      0.012219
Li	      4.22798      8.36806      4.22190         0.035800     -0.012047      0.012227
Li	      2.09395      4.26363      6.25341        -0.021589      0.022577     -0.008181
Sc	      6.30746      6.28973      8.25371         0.019439      0.002969      0.016819
Mn	      8.38011      4.21207      4.25166         0.005893      0.035231      0.011774
Mn	      6.25314      2.14879      4.20892        -0.043853     -0.046540      0.000525
Mn	      6.28620      6.33029      4.21155        -0.006229      0.009684     -0.037696
Mn	      2.15615      6.30897      4.18121         0.015899      0.000855     -0.046206
Cr	      4.17494      6.27706      6.28575         0.036946      0.005088      0.025052
Fe	      2.10845      2.09001      0.11426        -0.059407     -0.090466     -0.070702
Fe	      2.27495      4.20788      2.05921        -0.207319      0.116230     -0.025027
Co	      4.25026      4.20313      8.35131        -0.001631     -0.035383      0.008714
O	      2.06201      2.19234      2.14282        -0.007236     -0.050189      0.115645
O	      4.13380      4.23857      2.09171         0.255016      0.034492     -0.010500
O	      4.07514      2.06592      4.19176        -0.053107      0.058555     -0.005569
O	      6.45530      4.11582      4.20302         0.000257     -0.040641      0.013230
O	      6.41444      2.08491      6.12406        -0.023972     -0.026833      0.038517
O	      8.42129      4.09609      6.33841        -0.018480      0.039430     -0.129372
O	      2.07932      4.36294      4.08024        -0.024004      0.066371      0.066862
O	      4.32434      6.27214      4.29640         0.031782      0.006330     -0.041569
O	      4.18637      4.27219      6.45307         0.012314      0.000967      0.046066
O	      6.21499      6.37207      6.20837         0.003525     -0.021008     -0.014774
O	      6.24053      4.25036      8.36737        -0.035309     -0.001774     -0.007833
O	      8.41721      6.36738      8.46873        -0.008558      0.083394     -0.044931
O	      2.15841      6.35239      6.13537        -0.015849     -0.038953      0.052044
O	      4.06785      8.29191      6.32091         0.126141     -0.025473      0.021822
O	      4.21521      6.14307      8.35311        -0.025469     -0.113861      0.075490
O	      6.42620      8.41098      8.49575         0.078061     -0.005821     -0.015066
O	      6.15500      6.45651     10.41674        -0.116669      0.019992      0.025219
O	      8.46546      8.33545     10.40966         0.034997     -0.074365     -0.048068
