# total energy = -229.69545733 eV
 
CRYSTAL
PRIMVEC
-0.013162 6.455173 6.241886 
6.232629 0.007848 6.221153 
4.169415 4.303697 -0.009165 
PRIMCOORD
36 1
Li	      4.16427      8.51326      8.39340         0.034823     -0.047653      0.024945
Li	      4.30202      6.33732     10.25293         0.013630     -0.072079      0.024112
Li	      6.28631      8.50443     10.30232         0.004355     -0.023404      0.003558
Li	      6.17568      2.20126      8.28525        -0.027729      0.019936     -0.008253
Li	      4.14950      2.20395      6.23469        -0.018507      0.002871     -0.029948
Li	      6.11329      4.47215     10.35950        -0.030011      0.036819     -0.043092
Li	      4.21025      6.35914      6.35277         0.013285     -0.002590      0.011489
Li	      8.34446      8.64589      8.47363         0.003445      0.043537      0.079403
Li	      6.13476      6.44723      8.44165        -0.033945      0.044594     -0.037866
Sc	      6.20855      8.54956      6.34025         0.023737     -0.025594      0.030540
Mn	      6.19831      0.07110      6.16111        -0.032355     -0.004426      0.043522
Mn	      2.04185      2.16913      4.10558         0.011559      0.002166      0.024480
Mn	      4.15605      4.29144      4.10584         0.056464     -0.074832      0.002335
Mn	      6.20307      4.26024      6.23692        -0.056357     -0.024278     -0.027446
Cr	      2.17528      6.43068      8.35620        -0.021977     -0.026184      0.011077
Fe	      2.11418      8.55403      6.16597        -0.008565      0.076215      0.202834
Fe	      8.24376      4.51006      8.28753        -0.002680     -0.248698     -0.047080
Ni	      8.32470      6.54839     10.30879         0.082141      0.016781      0.079786
O	      2.08061      2.06641      2.12273         0.011030     -0.011955     -0.036966
O	      4.13253      4.30430      2.10413         0.058514     -0.005898     -0.063524
O	      3.98498      2.38453      4.13856         0.012828      0.048394     -0.027852
O	      6.08533      4.24092      4.16494         0.011073     -0.040090      0.019562
O	      6.31652      2.01646      6.21012        -0.058827     -0.015403      0.021939
O	      8.18729      4.20602      6.26022        -0.002049     -0.005451     -0.021580
O	      2.19837      4.41586      4.10753         0.000614     -0.032144      0.016519
O	      4.23750      6.24116      4.11670         0.058196      0.031353     -0.059421
O	      4.21514      4.28687      6.04706        -0.034174     -0.001514      0.074582
O	      6.20011      6.52215      6.06005        -0.029304      0.022955     -0.010652
O	      6.28437      4.28874      8.16563        -0.131082     -0.007140      0.002711
O	      8.27386      6.38295      8.28570         0.030164      0.252275     -0.139760
O	      2.13836      6.48821      6.32709         0.009614     -0.026434      0.006706
O	      4.13578      8.82854      6.22587         0.051992      0.000494      0.016698
O	      4.08245      6.45984      8.35059         0.076390      0.010638      0.026031
O	      6.26891      8.73409      8.28913         0.013730     -0.003567     -0.006406
O	      6.26926      6.48383     10.49667        -0.085552     -0.012024     -0.022040
O	      8.37759      8.54759     10.48167        -0.004472      0.102329     -0.140942
