# total energy = -220.86422944 eV
 
CRYSTAL
PRIMVEC
0.018850 6.430733 6.121557 
6.228387 0.010040 6.131009 
4.161563 4.302711 -0.002905 
PRIMCOORD
36 1
Li	      0.11219      6.34488      6.05926        -0.004356     -0.034148     -0.037045
Li	      6.25885     10.65014      8.12713         0.009069     -0.068807     -0.054402
Li	      6.18233      2.21003      4.09517         0.000451      0.038216      0.035811
Li	      6.21001      6.43701      4.16216        -0.022791      0.020725      0.049331
Li	      6.21289      4.30194      6.06431        -0.009456     -0.009487      0.011149
Li	      4.29303      8.55822      4.16969         0.032924     -0.041259      0.012544
Li	      2.14556      6.25843      4.19141         0.048851     -0.084449      0.042734
Li	      1.99978      4.41986      6.09453         0.014426      0.041792      0.000529
Li	      4.15700      6.48602      5.99124         0.024220      0.065334     -0.043707
Sc	      2.14719      8.44124      6.01989        -0.023374      0.047918     -0.054214
Mn	      8.24922      4.38013      4.09413        -0.081707     -0.057251      0.146706
Mn	      4.19912      6.40365      2.08490        -0.017259      0.050466      0.040793
Mn	      2.07955      4.30201      2.08155        -0.145556     -0.002640      0.195696
Mn	      4.13444      4.33598      8.11996         0.156674     -0.035455     -0.079501
Cr	      6.22504      6.49483      8.15725         0.166863     -0.099157     -0.127232
Ni	      4.20590      8.62148      8.12421        -0.036321      0.046218      0.039048
Ni	      4.20379      4.33978      4.15822         0.043236     -0.045847      0.088173
Ni	      4.17128      2.15498      6.10129        -0.000153     -0.026363     -0.011062
O	      2.04725      2.38721      2.01673        -0.047799      0.045191     -0.006953
O	      4.00236      4.28393      2.09265        -0.032544      0.005741     -0.094557
O	      4.15625      2.03864      4.06521        -0.022588     -0.130101     -0.093148
O	      6.31916      4.32574      4.04124         0.222246      0.006061     -0.067482
O	      6.22038      2.15803      6.29095         0.122595      0.013093      0.039758
O	      8.31701      4.32781      6.08725        -0.030538     -0.069760     -0.076285
O	      2.13611      4.28645      3.94955        -0.063369     -0.040849     -0.239020
O	      4.18443      6.38181      3.96578         0.001053      0.050406     -0.075088
O	      4.17030      4.22876      6.21396        -0.045949      0.090082      0.164131
O	      6.27427      6.40788      6.31926        -0.162072     -0.011697      0.261275
O	      6.28252      4.40099      8.20562        -0.013278      0.139967      0.005558
O	      8.27668      6.32685      8.19581        -0.039278     -0.075046      0.125284
O	      2.09085      6.49058      6.13831         0.028141     -0.071085      0.037959
O	      4.16667      8.57954      6.14835         0.000262      0.020703     -0.129314
O	      4.23770      6.49799      8.26806        -0.035731      0.018748      0.034935
O	      6.32114      8.41892      8.17059         0.064815     -0.058043     -0.012041
O	      6.08422      6.45037     10.07500        -0.058774      0.067630     -0.095008
O	      8.29839      8.80258     10.08035        -0.042936      0.193151     -0.035355
