# total energy = -219.61426724 eV
 
CRYSTAL
PRIMVEC
-0.014945 6.216219 6.298112 
6.233527 -0.030304 6.313451 
4.135367 4.134452 -0.000252 
PRIMCOORD
36 1
Li	      4.13173      4.09064      0.11819         0.015368      0.043219     -0.021704
Li	      6.11128      4.10319      2.12274         0.037560     -0.012292      0.070837
Li	      4.13517      2.21043      2.10425         0.023876     -0.037424      0.074266
Li	      4.13479      4.14050      4.06592        -0.011478     -0.037199      0.040544
Li	      8.20239      6.14484      6.25528         0.043144      0.040157     -0.040425
Li	      6.27372      4.15515      6.22113        -0.025358     -0.073605     -0.011970
Li	      4.17204      8.16850      4.27853        -0.080851      0.051960     -0.018658
Li	      4.18382      6.30574      6.22528        -0.001654     -0.065412     -0.022460
Li	      6.22616      6.22620      8.28518        -0.035250      0.022162      0.018487
Sc	      2.02252      6.12463      4.25766        -0.145955      0.052242     -0.040136
Mn	      2.12294      8.23270      6.39988        -0.153484      0.114869     -0.151690
Mn	      4.21050     -0.01385      4.26456         0.025278     -0.025022     -0.080504
V	      4.16645      4.22228      8.22622        -0.133723      0.053727      0.387996
Cr	      4.10944      6.16300      2.08243        -0.001470     -0.034545     -0.111550
Co	      6.25371      8.25491     10.54974        -0.001750      0.030827      0.007209
Cu	      6.15908      6.23818      4.23209         0.073214     -0.124157     -0.079713
Cu	      6.05746      8.25065      6.30762        -0.007747      0.091232      0.127665
Ni	      8.30102      4.12129      8.37578        -0.106345      0.061154     -0.104458
O	      6.18770      6.32396      6.17226        -0.021214     -0.062338      0.208396
O	      1.98016      2.10617      2.20496         0.024657     -0.122100      0.022298
O	      4.07663      4.20926      2.10323         0.095543     -0.011333     -0.013294
O	      4.33150      1.88203      4.21923         0.021674      0.021089      0.023510
O	      6.41814      4.01158      4.22473        -0.013442      0.087528      0.010673
O	      6.39741      2.04143      6.29526         0.000027     -0.001565      0.044854
O	      8.32237      4.00540      6.21861        -0.021068      0.074594     -0.013059
O	      2.00285      4.15268      4.09609         0.001600      0.060891     -0.149506
O	      4.03915      6.18668      4.08270        -0.059920     -0.023895      0.007081
O	      4.05896      4.18393      6.49894        -0.091163      0.018178     -0.312519
O	      6.03746      4.05678      8.38803         0.086925      0.022795     -0.092557
O	      8.31803      6.28898      8.37647        -0.018979      0.011576      0.045119
O	      2.07838      6.21797      6.30674         0.040384     -0.125948      0.058383
O	      4.03269      8.26283      6.35831         0.323492     -0.118195      0.021562
O	      4.21458      6.01289      8.56042        -0.003027      0.053134     -0.022217
O	      6.43073      8.23996      8.62028        -0.002411     -0.009377      0.089078
O	      6.13241      6.29896     10.51772         0.082903     -0.024344      0.026599
O	      8.22405      8.32668     10.46150         0.040645     -0.002582      0.001860
