# total energy = -218.13047332 eV
 
CRYSTAL
PRIMVEC
-0.003376 6.431245 6.105039 
6.279865 -0.033316 6.134752 
4.170432 4.290331 -0.005499 
PRIMCOORD
36 1
Li	      6.29943     10.63275      8.14533        -0.078468      0.036746     -0.039868
Li	      4.25252      8.55024      8.15641        -0.008747      0.068143     -0.067533
Li	      4.17441      0.06325      4.01629         0.046646      0.026971      0.044931
Li	      6.12947      2.25912      3.99906         0.032139      0.050286      0.021281
Li	      0.02255      2.08447      1.99630        -0.010436     -0.124858      0.000825
Li	      2.16724      4.24124      1.97163         0.124745     -0.031187     -0.020950
Li	      4.26166      4.13152      3.97608         0.021281     -0.032656     -0.116850
Li	      4.16616      6.43085      6.25281         0.002526      0.008534     -0.005303
Li	      6.13284      6.48708      8.11887         0.037560      0.022005      0.061187
Sc	      2.16405      2.06551      3.98048        -0.146963     -0.007062      0.043584
Mn	      6.27371      4.26644      6.15748         0.010127      0.045228      0.025471
Mn	      6.27653      4.26546     10.16814         0.007558      0.280766      0.042453
V	      8.40370      6.38354     10.10163        -0.223815     -0.107463     -0.137927
Cr	      2.04858      2.12701      0.06964        -0.006560      0.045347     -0.031605
Co	      4.12547      4.26852      0.04938         0.271033     -0.313357     -0.250173
Cu	      4.22403      2.10848      6.11283         0.081235      0.009080      0.078108
Cu	      6.29216      8.57426      6.18478         0.052759     -0.165452     -0.066307
Cu	      4.12874      4.44131      8.14922         0.195270     -0.074244      0.226198
O	      4.16339      6.37360      8.18532        -0.073408      0.177927     -0.019154
O	      6.37332      8.55009      8.06414        -0.108646      0.077533      0.202368
O	      2.07965      2.12339      2.00254        -0.042348      0.029055      0.120103
O	      4.16322      4.30726      1.83206        -0.002401      0.029628      0.518385
O	      4.17008      2.13749      4.13822         0.098100      0.062819     -0.185226
O	      6.22215      4.32313      4.22673        -0.075592     -0.011366     -0.051766
O	      6.27869      2.18614      6.12431        -0.172818     -0.425162     -0.059566
O	      8.29011      4.07304      6.13260         0.359796      0.057379     -0.011163
O	      2.03524      4.34850      4.19076         0.078347      0.022871     -0.108216
O	      4.10767      6.65575      4.08597         0.062342     -0.207942      0.070813
O	      4.29824      4.35838      6.20640        -0.027920      0.014556     -0.091648
O	      6.40933      6.25508      6.12638        -0.040227      0.147949      0.117955
O	      6.18068      4.27869      8.15214        -0.008192     -0.008235     -0.167316
O	      8.33657      6.36603      8.32072         0.039892     -0.032962      0.030054
O	      2.01090      6.54195      5.94837        -0.509369     -0.033800      0.221809
O	      4.05886      8.67654      6.08350         0.153729      0.347668     -0.025587
O	      6.35876      6.21350     10.33998         0.042384      0.003400     -0.320688
O	      8.43235      8.40563     10.21922        -0.181557      0.011859     -0.048680
