# total energy = -92.95254227 eV
 
CRYSTAL
PRIMVEC
-2.055054 4.090329 -2.052219 
2.029057 4.064158 2.026070 
2.080900 0.013053 -6.156317 
PRIMCOORD
16 1
Li	      0.08376      4.04928     -4.15516        -0.102688      0.011181     -0.096752
Li	      1.99298      6.06191     -4.04891         0.032706      0.152371     -0.057929
Li	      1.95974      4.04870     -6.01631         0.035836     -0.002197     -0.176478
Li	      2.04409      2.02591     -4.06469         0.014690     -0.156286     -0.029469
Mn	      4.03496      4.03867     -4.05334         0.875471      0.018169     -0.279771
Mn	     -0.00199      6.06240     -2.05690        -0.366201      0.526586     -0.086712
Ni	      0.01494      2.02749     -2.04777        -0.209245     -0.203040     -0.034899
Ni	      2.05593      4.03938     -2.07923         0.080416     -0.044219      0.465617
O	      0.00642      4.05951     -6.24294         0.022358      0.007745     -0.345173
O	      1.87650      6.02779     -2.01610         0.435137      0.462329     -0.293821
O	      2.18656      4.04346     -4.06820        -0.275506     -0.010357     -0.394297
O	      1.99663      3.93169      0.05067         0.035585     -0.081025      0.504393
O	      1.98981      2.04926     -1.90539         0.522384     -0.508226     -0.177993
O	      0.02069      6.17892     -0.12979        -0.408975      0.218432      0.472741
O	     -0.07832      4.14420     -2.02180        -0.367159     -0.107892     -0.058643
O	      0.10691      1.89792     -0.04515        -0.324808     -0.283571      0.589187
