# total energy = -221.41006933 eV
 
CRYSTAL
PRIMVEC
-0.020451 6.235519 6.359407 
6.133192 -0.011062 6.350338 
4.090057 4.152224 -0.008562 
PRIMCOORD
36 1
Li	      4.06075      4.15462      0.08181         0.117098     -0.074125     -0.082550
Li	      8.08790      2.14703      6.43460         0.021975     -0.052232      0.035068
Li	      4.01724      2.09504      2.14058        -0.025452      0.051262     -0.079164
Li	      8.26856      4.20258      8.31211         0.034132     -0.021235     -0.025909
Li	      2.11520      2.05390      4.08501         0.004165     -0.092809     -0.074888
Li	      4.05296      4.22090      4.13861         0.115081      0.048501     -0.022038
Li	      4.10715      2.04164      6.31777        -0.049936      0.030520     -0.077792
Li	      4.06775      6.22364      6.32114        -0.045760      0.015426     -0.021628
Li	      6.17317      6.21196      8.48862        -0.003596      0.039414      0.071462
Sc	     10.14971      8.27300     10.56342         0.142173      0.228349      0.120410
Mn	      2.00415      6.24490      8.43108        -0.139143      0.159365      0.222738
Mn	      6.09188      4.19450      6.36005        -0.173219      0.145344     -0.267611
V	      6.17348      8.16221      6.29005         0.006519      0.350417     -0.057028
Cr	      6.07131      2.04872      4.25367        -0.011750      0.004438     -0.094221
Co	      8.13436      4.15902      4.24058         0.497342      0.465738      0.400972
Co	      2.05767      6.23392      4.24740        -0.283997      0.070541      0.087373
Cu	      4.10481      4.11875      8.46619         0.050242     -0.067609     -0.097022
Ni	      4.09380      6.19311      2.11395         0.098596      0.043404     -0.051615
O	      2.02660      1.90038      2.04631         0.229543     -0.063269      0.004647
O	      4.20694      4.16697      2.07640        -0.147161     -0.198154     -0.038761
O	      4.12666      1.91667      4.17051         0.047806      0.002447     -0.008930
O	      6.19222      4.08286      4.09086        -1.804823     -0.220316     -0.285717
O	      6.06748      2.25313      6.23222        -0.027423     -0.042361      0.163529
O	      8.00391      4.20256      6.20191        -0.026487     -0.043325      0.465519
O	      2.05112      4.13879      4.46756         0.004528      0.028607     -0.337537
O	      4.06509      6.26515      4.24392        -0.609629     -0.057980     -0.189179
O	      4.01500      4.15922      6.27452         0.114966     -0.050406     -0.021304
O	      6.14424      6.34519      6.41517         0.057927     -0.321815      0.083173
O	      6.13725      4.15462      8.49056         0.083591      0.046196      0.025340
O	      8.20774      6.29442      8.58714        -0.139539      0.042984      0.770268
O	      2.08000      6.05434      6.47518         0.056752     -0.047352     -0.304202
O	      4.33890      8.28654      6.33900        -0.101381     -0.037224     -0.010949
O	      3.97170      6.12859      8.64607        -0.011917     -0.087387     -0.459613
O	      6.15589      8.37921      8.43041        -0.052129     -0.001013      0.162794
O	      6.02537      6.28549     10.65987         2.041495     -0.049576     -0.111646
O	      8.08835      8.39178     10.76393        -0.070589     -0.244768      0.106010
