# total energy = -222.06351910 eV
 
CRYSTAL
PRIMVEC
-0.007634 6.326250 6.242822 
6.250651 0.019094 6.215995 
4.182677 4.215264 -0.002751 
PRIMCOORD
36 1
Li	      4.20822      6.41252     10.32727         0.013867     -0.020821      0.055959
Li	      6.13035      2.09990      4.09331        -0.048215      0.007979      0.119028
Li	     10.28711      6.35696      8.36784        -0.016568      0.010024     -0.051696
Li	      4.16863      4.18865      4.11050        -0.014800      0.022662     -0.007321
Li	      8.33462      6.26796      6.18539         0.001790     -0.006940      0.002264
Li	      8.38529      6.34396     10.28443        -0.009872     -0.006883      0.002801
Li	      6.23394      8.53361      6.30920         0.042960     -0.001376      0.009200
Li	      4.15607      6.33994      6.25021         0.024305     -0.045895     -0.007687
Li	      8.27147      8.42941      8.42220        -0.014102      0.018992      0.034713
Sc	      2.12223      8.38929      6.19660        -0.102122     -0.018791     -0.019637
Mn	      8.37805      4.31801      8.28277         0.148772     -0.182920      0.047745
Mn	      4.18194      8.40525      4.17654         0.023463      0.049500     -0.004770
V	      5.98518      4.22058      6.19826        -0.268861      0.013468     -0.283816
Cr	      2.11128      2.12314      4.17398        -0.050198     -0.067606     -0.012701
Co	      6.30187     10.50442      8.34038        -0.060888      0.031020      0.108282
Co	      6.24631      6.37765      8.33374        -0.144772      0.116360     -0.210459
Cu	      0.04067      6.30970      6.20981        -0.022908      0.140228     -0.095380
Cu	      4.24486      8.41558      8.34299        -0.090484      0.014913      0.008081
O	      4.07069      2.15806      4.12392         0.100249     -0.039364      0.034578
O	      2.16941      2.09946      2.12737        -0.107819     -0.071078     -0.018452
O	      4.32848      4.16773      1.99702         0.091777      0.023528      0.153342
O	      6.25205      4.32870      4.24345         0.026153     -0.040116     -0.167720
O	      6.28573      2.41367      6.14638         0.049343      0.096574      0.040972
O	      8.41608      4.21353      6.36133         0.016203      0.062783     -0.015314
O	      2.00095      4.15859      4.02076         0.046688      0.074111     -0.049461
O	      4.27777      6.46972      4.11467        -0.046316     -0.016466     -0.030544
O	      4.26133      4.22256      6.19646        -0.041147      0.007760      0.037328
O	      6.26674      6.11837      6.18103         0.053368      0.003887     -0.235462
O	      6.21205      4.26848      8.07252        -0.006627      0.114852      0.197932
O	      8.26886      6.21389      8.28967         0.019066      0.079275     -0.028342
O	      2.03738      6.32686      6.42817         0.097912     -0.079259      0.153701
O	      4.19706      8.32639      6.25942         0.094042     -0.118976      0.066449
O	      4.10170      6.42395      8.33746        -0.068044     -0.253612     -0.002654
O	      6.21835      8.54273      8.35167         0.258087      0.102814     -0.008816
O	      6.26134      6.18508     10.41943         0.083126     -0.022185      0.289723
O	      8.50718      8.39203     10.41452        -0.077425      0.001560     -0.111867
