# total energy = -224.47586684 eV
 
CRYSTAL
PRIMVEC
-0.004641 6.305364 6.244779 
6.198371 0.022996 6.216277 
4.152810 4.204989 -0.005272 
PRIMCOORD
36 1
Li	      0.04353      6.24762      6.14209        -0.041054      0.011991     -0.025032
Li	      2.19559      8.29306      6.15659         0.001224      0.003031     -0.005769
Li	      4.23264      8.25596      8.22924        -0.013839     -0.023578     -0.034958
Li	      6.19655      8.30921     10.46060        -0.001219     -0.035089      0.038847
Li	      4.10838      4.25892      4.14735         0.035527      0.025120      0.028902
Li	      4.07533      8.45065      4.27568        -0.018622      0.074784     -0.016093
Li	      2.11442      6.36351      4.24626         0.010543     -0.002607     -0.017246
Li	      4.04199      6.41698      6.25217         0.010822     -0.011541      0.004647
Li	      6.08911      6.40100      8.39150        -0.017940     -0.010754      0.011744
Sc	      6.15781      6.31831      4.10469         0.018149     -0.034193      0.029822
Mn	      6.20977      4.18761      6.21124         0.066512      0.018631     -0.043663
Mn	      1.99397      4.27039      6.22151        -0.036952     -0.071672     -0.075595
V	      2.16681      4.26910      2.11746        -0.004779     -0.045494     -0.014823
Cr	      8.25798      8.45357      8.35573        -0.010308     -0.045656      0.017514
Co	      4.22190      6.29565     10.38715         0.026484      0.087727      0.077830
Co	      6.19515      2.13444      8.28336         0.037454      0.015060     -0.029703
Co	      4.14213      2.13517      6.24292        -0.039624     -0.078386     -0.033867
Ni	      2.03837      6.29836      8.25680        -0.171235      0.065605      0.103428
O	      1.98306      2.13641      2.02026        -0.068240      0.030362     -0.012265
O	      4.11368      4.39157      2.10762        -0.023348      0.012681     -0.005073
O	      4.14310      1.99538      4.30805         0.066052     -0.109725      0.005006
O	      6.34198      4.20273      4.25935         0.006969     -0.036026      0.075608
O	      6.07097      2.20647      6.32724        -0.076940     -0.062616      0.065172
O	      8.27675      4.41772      6.36485         0.016127      0.017880     -0.110096
O	      2.06980      4.18874      4.17588        -0.009822      0.033697      0.139808
O	      4.15273      6.30010      4.00308        -0.018942      0.056318      0.008697
O	      4.05379      4.09477      6.27040        -0.052713     -0.003846     -0.002783
O	      6.31103      6.33994      6.22601         0.089935      0.087443      0.081260
O	      6.20617      4.12731      8.16418        -0.049681      0.024676      0.033771
O	      8.38993      6.38642      8.20878         0.121627      0.064818     -0.022074
O	      2.05899      6.14409      6.22842         0.009755     -0.015077     -0.132091
O	      4.30630      8.38043      6.25714         0.081208      0.011180     -0.027330
O	      4.06478      6.20841      8.28928         0.125515      0.031339      0.042073
O	      6.26552      8.43883      8.14864        -0.026417     -0.122900     -0.092939
O	      6.04152      6.32272     10.35468        -0.073521     -0.051562     -0.027011
O	      8.26631      8.52131     10.31758         0.031293      0.088380     -0.035715
