# total energy = -216.38235650 eV
 
CRYSTAL
PRIMVEC
0.016759 6.241291 6.266102 
6.259309 0.033682 6.248974 
4.208707 4.185461 -0.013304 
PRIMCOORD
36 1
Li	     10.42961     10.44716     12.43980         0.007295      0.048961     -0.015640
Li	      8.47687     10.36578     10.49083        -0.054880     -0.032922     -0.002658
Li	      8.34396      4.24506      8.28616        -0.076347      0.084237     -0.007178
Li	      8.38553      6.20261      6.33210        -0.017240     -0.064447      0.063505
Li	      6.35472      4.33636     10.40191         0.037350      0.027092     -0.067380
Li	      8.28490      6.24540     10.38927         0.031909     -0.008841     -0.017645
Li	      2.08244      4.21024      6.18615         0.026544      0.030052     -0.047410
Li	      8.40864      8.32886      8.40337         0.018609     -0.002441      0.037260
Li	      6.32253      6.28202      8.39703         0.023330     -0.006052      0.021113
Sc	      2.13340      2.16814      4.15903        -0.269299     -0.026625      0.057756
Mn	      4.24449      8.38759      8.31202        -0.103459      0.251284     -0.011007
Mn	      6.33266      8.27403     10.42662         0.176188      0.074581      0.197821
V	      4.15527      6.26409      6.31593        -0.021627     -0.009130     -0.328710
Cr	     10.30764      6.31768      8.31773        -0.252661     -0.207050      0.019144
Cu	      6.27674      4.19714      6.29456         0.213997      0.144354     -0.015865
Ni	      8.35835      2.18997      6.20008        -0.044156     -0.070256      0.011496
Ni	      6.34723     10.40173      8.33728         0.034181      0.066047     -0.024152
Ni	      4.15085      4.20800      4.16822         0.104618      0.099409      0.022073
O	      2.13892      2.02814      2.05238        -0.247470      0.171870      0.179109
O	      4.26650      4.28632      2.05811         0.071087      0.259479     -0.139799
O	      4.26233      2.12424      4.03514        -0.038469     -0.104981     -0.233275
O	      6.23932      4.08917      4.12953         0.073009     -0.060662      0.065467
O	      6.26784      2.12352      6.23070        -0.170604     -0.188102     -0.143945
O	      8.16762      4.19737      6.25081         0.053480      0.119708     -0.006789
O	      2.13590      4.13729      4.18833        -0.166680     -0.121020      0.045628
O	      4.22858      6.26162      4.11491         0.115123      0.167211      0.057116
O	      4.33227      4.30038      6.24022        -0.171118     -0.177668      0.120198
O	      6.13331      6.25237      6.21965         0.063460      0.234259      0.049638
O	      6.29877      3.94469      8.33120         0.065403      0.315976      0.146336
O	      8.53690      6.26190      8.30507        -0.102764      0.011045      0.010587
O	      2.32522      6.24982      6.27412        -0.021174     -0.070529     -0.150418
O	      4.21955      8.29973      6.38205         0.175768      0.135636      0.112387
O	      4.20036      6.35684      8.21921         0.208757     -0.834559      0.209725
O	      6.24443      8.37652      8.50399         0.336266     -0.149104     -0.072738
O	      6.26522      6.42665     10.45022        -0.014124     -0.040397     -0.001478
O	      8.19156      8.36120     10.44728        -0.064302     -0.066416     -0.140274
