# total energy = -223.22238256 eV
 
CRYSTAL
PRIMVEC
0.015832 6.544146 6.241714 
6.103912 0.034434 6.222985 
4.065099 4.345442 0.027054 
PRIMCOORD
36 1
Li	      6.04472      0.16294      6.21529         0.081527      0.048695     -0.026619
Li	      8.06231      2.33504      6.16508         0.009559      0.080581     -0.003515
Li	      8.09456      4.38440      4.36575         0.016292     -0.034026     -0.060630
Li	      6.04528      2.30815      4.31479         0.023696      0.100689      0.001955
Li	      8.12333      4.46660      8.13169         0.054615      0.048334      0.032526
Li	      6.11926      6.45829      4.24446         0.012392     -0.070062     -0.005468
Li	      6.26102      4.36493      6.12149        -0.023584     -0.039583     -0.040577
Li	      2.05619      6.56693      4.27341        -0.050559      0.067129      0.079646
Li	      2.04411      4.38850      6.22229        -0.038327      0.036866      0.020866
Sc	      8.08678      8.69934      8.33919        -0.039896      0.005807      0.063633
Mn	      4.02322      2.16068      2.13075        -0.072987      0.044968     -0.041951
Mn	      4.05101      4.33711      4.19500        -0.043605     -0.018628     -0.138656
V	      0.10354      4.46274      4.26193        -0.016449     -0.045700      0.110650
Cr	      4.07098      6.53658      6.19231        -0.001617      0.086120     -0.032453
Fe	      6.16133      2.21946      8.19096         0.044657     -0.023322      0.149736
Co	      6.07959      4.35736      2.09631        -0.055708     -0.046443      0.009342
Ni	      8.10847      6.38153      6.18805         0.042818      0.078532     -0.077099
Ni	      6.14890      6.48915      8.29454        -0.047390     -0.007019      0.111974
O	      8.16675      4.40778      6.24852        -0.022416     -0.168187     -0.008370
O	      2.06979      1.96767      2.05789         0.110844     -0.118323      0.037953
O	      4.12734      4.46025      2.20171         0.039486     -0.049423      0.052970
O	      4.02917      2.16771      4.06347         0.012492      0.005450     -0.113580
O	      5.95325      4.35158      4.04712         0.020405      0.010755      0.007661
O	      6.06757      2.23794      6.30471         0.113733      0.031409     -0.121530
O	      1.97903      4.37073      4.17574         0.050235     -0.001703     -0.003463
O	      4.08950      6.70464      4.17636        -0.006002     -0.023114      0.004686
O	      4.08697      4.50443      6.15222        -0.002266     -0.017583      0.081499
O	      6.08794      6.56549      6.32638        -0.211496      0.011186     -0.143590
O	      6.14145      4.30919      8.48249        -0.002320      0.012210     -0.026447
O	      8.17855      6.63889      8.28853         0.043131      0.045561      0.121368
O	      2.09596      6.51593      6.38764         0.011931     -0.044072      0.003048
O	      4.09457      8.60064      6.17274         0.003753     -0.041969     -0.022008
O	      4.03850      6.49800      8.23032        -0.092139     -0.049847     -0.029359
O	      6.00780      8.81178      8.37427         0.051846      0.083197     -0.024159
O	      6.16608      6.27819     10.34720        -0.008699      0.015410      0.076810
O	      8.35137      8.73653     10.38231        -0.007952     -0.013892     -0.046851
