# total energy = -225.13232515 eV
 
CRYSTAL
PRIMVEC
0.048344 6.098370 6.294872 
6.305701 0.000992 6.343479 
4.215666 4.110647 -0.011606 
PRIMCOORD
36 1
Li	      2.20001      8.14728      6.28487         0.040433     -0.030057     -0.029337
Li	      4.37152      8.11547      8.38468        -0.007528      0.012028     -0.030505
Li	      6.35742      8.10281     10.31302        -0.021938     -0.020730     -0.016136
Li	     10.43536      6.18809      8.44573        -0.025912     -0.028540     -0.011641
Li	      8.39478      6.13152      6.42950         0.037291     -0.012350      0.039354
Li	      8.49389      6.21162     10.40954         0.004136      0.042308     -0.052507
Li	      6.36461      8.22310      6.44940        -0.002718      0.021012      0.022124
Li	      8.34070      8.08876      8.47029         0.000108      0.005479     -0.062366
Li	      6.48377      6.21394      8.35016        -0.019151      0.007152      0.017355
Sc	      2.09416      2.05701      4.20118        -0.073400      0.054148      0.019970
Mn	      8.38932      4.12567      8.41277         0.167376      0.148095      0.136783
Mn	      6.30461      3.98369      6.40940         0.001799     -0.163279     -0.062136
V	      0.15077      6.17960      6.29376         0.066205      0.079646      0.048012
Cr	      4.27792      6.04698     10.44775         0.027544      0.111054     -0.096226
Fe	      4.19937      4.01237      4.23765         0.136894      0.096790     -0.007308
Co	      6.35452     10.18321      8.37289         0.075780     -0.097227     -0.057012
Co	      6.33522      4.10681     10.55621        -0.052916      0.074148     -0.122088
Cu	      4.20597      6.14230      6.41588        -0.065166      0.095439      0.049648
O	      2.07531      2.10512      2.15918        -0.038432     -0.034116     -0.152901
O	      4.23830      4.11377      2.04210        -0.007622     -0.031304      0.239151
O	      4.17299      2.04891      4.17151         0.030557     -0.136552      0.036709
O	      6.32929      4.05980      4.06182        -0.078530     -0.093342     -0.005517
O	      6.32047      1.94810      6.30859         0.020583      0.200419     -0.035717
O	      8.34079      4.08830      6.20122        -0.044646     -0.000605     -0.002616
O	      2.17947      4.11008      4.27718        -0.041073     -0.015761      0.064792
O	      4.22271      6.20572      4.37756        -0.052412     -0.144120     -0.016605
O	      4.39007      3.96538      6.18490        -0.061649     -0.207161     -0.039224
O	      6.24684      5.91401      6.32154         0.079721      0.061195      0.082685
O	      6.42478      4.07757      8.59272         0.038958     -0.031050     -0.024240
O	      8.44368      5.99071      8.43124         0.008064     -0.109169     -0.064529
O	      2.08003      6.14623      6.48213        -0.060007      0.040713      0.014823
O	      4.24380      8.42104      6.13643         0.033718     -0.048343      0.016707
O	      4.05498      6.12546      8.39369        -0.119262      0.024795      0.191443
O	      6.36013      8.28561      8.36721        -0.017175      0.027687      0.022813
O	      6.28082      6.04220     10.62563        -0.011166      0.068312     -0.136866
O	      8.65499      8.22336     10.48438         0.031539      0.033286      0.023107
