# total energy = -226.77407333 eV
 
CRYSTAL
PRIMVEC
0.011874 6.325995 6.219306 
6.227739 0.019027 6.212531 
4.178582 4.239358 -0.014346 
PRIMCOORD
36 1
Li	      6.23533      0.25758      6.23017         0.047176      0.040110      0.006388
Li	      8.22027      2.17945      6.18402        -0.033159     -0.002422      0.001123
Li	      6.11475      4.20227      2.05243        -0.015142     -0.012617     -0.012564
Li	      6.22171      2.11783      8.15392        -0.018314      0.018257     -0.046907
Li	      4.20884      4.19668      4.07408        -0.030100      0.033631      0.017651
Li	      4.24142      2.15862      6.18701         0.032546      0.046563     -0.003131
Li	      6.28818      8.39917      6.24617         0.017665      0.021175      0.024476
Li	      8.30706      8.33916      8.30660        -0.027919      0.018264     -0.012805
Li	      6.34095      6.44623      8.29603         0.045064     -0.009118     -0.022809
Sc	      8.31837      4.25216      8.18757         0.046641      0.056353     -0.043674
Mn	      6.15775      4.31523     10.33687        -0.011586      0.012654     -0.020179
Mn	      2.12216      6.34325      4.13580         0.003283     -0.010037      0.010793
V	      4.13214      6.24214      6.36460        -0.122963      0.070882     -0.125951
Cr	      4.24541      8.48163      8.25175        -0.015369      0.068558     -0.070457
Fe	      6.27118      6.31795      4.11113        -0.105823     -0.027052      0.033811
Co	      6.24988      2.18844      4.14525         0.048311     -0.036600      0.077330
Co	      6.22908      4.23241      6.21724         0.034516     -0.088051      0.071097
Ni	      8.34535      4.26352      4.16057         0.037346     -0.072406     -0.027611
O	      2.15076      2.08822      2.15511         0.054549     -0.025232     -0.020422
O	      4.16244      4.13584      1.95333        -0.016724     -0.037115      0.035572
O	      4.18715      2.08368      4.07115         0.052018      0.104829     -0.004439
O	      6.26578      4.22463      4.24606        -0.113346     -0.079074      0.000417
O	      6.21538      2.30699      6.08769        -0.010361      0.016049      0.003747
O	      8.18108      4.29593      6.16388        -0.059207     -0.009015      0.109172
O	      2.07073      4.08697      4.15054         0.040272      0.066269     -0.031967
O	      4.16512      6.32462      4.27320         0.039854     -0.021390      0.020931
O	      4.25998      4.40058      6.25936         0.030291     -0.047385     -0.035721
O	      6.11656      6.21414      6.13723         0.030360     -0.008246      0.039726
O	      6.23587      4.22425      8.19328        -0.017343      0.013820     -0.051979
O	      8.35767      6.31441      8.45402        -0.006248      0.005852      0.006026
O	      2.28639      6.26441      6.10463         0.099952     -0.005153     -0.001982
O	      4.22899      8.18460      6.24861         0.005011     -0.006632      0.102199
O	      4.17409      6.41282      8.16454         0.017321     -0.052568      0.029296
O	      6.20022      8.47683      8.40613         0.020644     -0.034959     -0.027497
O	      6.31394      6.50334     10.43262         0.013050      0.104125     -0.020693
O	      8.22655      8.54862     10.35151        -0.112266     -0.112322     -0.008967
