# total energy = -220.92904399 eV
 
CRYSTAL
PRIMVEC
0.029155 6.373639 6.302349 
6.214773 0.008801 6.323484 
4.155418 4.275906 -0.006977 
PRIMCOORD
36 1
Li	      6.23445      4.25456      2.18506         0.071842      0.059155     -0.012497
Li	      4.22466      8.51381      8.44811        -0.004993     -0.145662      0.009668
Li	      4.10294      0.10356      4.14724         0.056915      0.067938     -0.072608
Li	      8.29558      4.27674      8.36907         0.060242     -0.032649      0.015919
Li	      4.19635      4.21848      4.17327        -0.010367      0.007390     -0.044432
Li	      4.16190      2.12663      6.20011        -0.006632     -0.032704     -0.065583
Li	      6.17033      4.28259      6.33347         0.000949      0.011896     -0.063268
Li	      6.18316      4.24660     10.42947        -0.026515     -0.029862      0.049116
Li	      6.19153      6.33675      8.42470        -0.022305      0.035806      0.013439
Sc	      2.10368      2.22471      0.05786        -0.041083     -0.007690     -0.015460
Mn	      4.15775      4.30203      0.04696         0.020527      0.085169      0.103418
Mn	      2.13795      2.03881      4.15712         0.011452      0.043924      0.101448
V	      2.09994      6.21636      4.09148        -0.083252     -0.286564      0.129665
Cr	      4.19198      6.33979      6.40629         0.044587      0.316792      0.097766
Fe	      6.13511      2.31957      4.15314         0.156681     -0.133401      0.091199
Cu	      6.22365      2.17872      8.35645        -0.080058     -0.060567     -0.064720
Cu	      4.19219      4.28334      8.42309        -0.061052      0.148988      0.071227
Ni	      6.24336      8.47616      6.38417         0.021094     -0.017134     -0.017468
O	      6.06865      4.13405      8.42057         0.168579     -0.032817     -0.001743
O	      2.04614      2.18753      2.22014         0.069182      0.076786     -0.073558
O	      4.17445      4.47256      1.93655         0.033560     -0.062796     -0.140436
O	      4.19867      2.17485      4.14664        -0.172795      0.053876     -0.006194
O	      6.21248      4.26806      4.17515         0.019210      0.202257      0.014531
O	      6.24443      2.20352      6.15145         0.070033      0.025373     -0.055142
O	      8.44811      4.24228      6.28765         0.005565     -0.064393      0.048473
O	      2.06853      4.39586      4.26224         0.005443      0.020282     -0.001975
O	      3.96307      6.37439      4.39220         0.089566     -0.031600     -0.081779
O	      4.10308      4.36349      6.41372         0.125148     -0.181916      0.090977
O	      6.16883      6.41436      6.11302         0.170198     -0.132774     -0.102790
O	      8.27893      6.27554      8.66490        -0.048035      0.019548     -0.199933
O	      2.08603      6.37252      6.25658        -0.092944      0.128347      0.003853
O	      4.20989      8.40712      6.34742        -0.307367      0.100325      0.033028
O	      4.23774      6.41714      8.30778         0.015434     -0.072198      0.099413
O	      6.43640      8.50068      8.47917        -0.163141      0.012330     -0.076936
O	      6.43988      6.40392     10.65498        -0.145385     -0.019073      0.079976
O	      8.26498      8.34198     10.52795         0.049717     -0.072379      0.043405
