# total energy = -93.08421502 eV
 
CRYSTAL
PRIMVEC
-2.065433 4.110987 -2.062584 
2.039305 4.084684 2.036302 
2.091410 0.013119 -6.187409 
PRIMCOORD
16 1
Li	      0.08461      4.09028     -4.19724        -0.034539      0.008579     -0.053637
Li	      2.01316      6.12330     -4.08991         0.012062      0.074686     -0.025268
Li	      1.97958      4.08970     -6.07723         0.006296      0.000347     -0.077109
Li	      2.06479      2.04643     -4.10585         0.010268     -0.072236     -0.020965
Mn	      4.07582      4.07957     -4.09439         0.404130      0.005336     -0.128336
Mn	     -0.00201      6.12379     -2.07773        -0.170371      0.257544     -0.042112
Ni	      0.01510      2.04802     -2.06851        -0.100735     -0.099368     -0.004354
Ni	      2.07676      4.08029     -2.10029         0.023912     -0.026239      0.239801
O	      0.00648      4.10062     -6.30616         0.071405      0.004108     -0.198954
O	      1.89550      6.08883     -2.03652         0.175535      0.280872     -0.209064
O	      2.20870      4.08441     -4.10940        -0.101960     -0.005531     -0.257479
O	      2.01685      3.97151      0.05119         0.017563     -0.083427      0.295763
O	      2.00996      2.07001     -1.92468         0.317503     -0.306100     -0.049270
O	      0.02090      6.24149     -0.13110        -0.261870      0.118935      0.206074
O	     -0.07911      4.18617     -2.04227        -0.223996     -0.005415     -0.023331
O	      0.10800      1.91713     -0.04560        -0.145204     -0.152091      0.348241
