# total energy = -221.44226481 eV
 
CRYSTAL
PRIMVEC
0.032966 6.319720 6.321031 
6.216058 0.019727 6.334477 
4.166480 4.246156 -0.010346 
PRIMCOORD
36 1
Li	      2.15743      8.39270      6.32177        -0.007556      0.016451      0.014733
Li	      4.18864      2.06572      2.21416        -0.041171      0.010630      0.030596
Li	      4.14815      6.38643      2.17784         0.004081     -0.007280     -0.025531
Li	      6.20373      6.37137      4.20052        -0.014585      0.024774     -0.041004
Li	      4.15708      4.30037      4.29468        -0.077174      0.049759     -0.025613
Li	      6.10175      4.28448      6.28069         0.012487     -0.000981      0.006943
Li	      8.40757      6.37140     10.41753        -0.043770     -0.017699     -0.130379
Li	      8.33994      8.40987      8.43386         0.045334     -0.003528      0.017838
Li	      6.24224      6.42964      8.41528        -0.019908     -0.049729      0.058194
Sc	      2.06032      4.11752      2.10499         0.016307      0.022683     -0.048685
Mn	      8.32539     10.56859     10.51833         0.086881     -0.039394      0.058571
Mn	      6.24116      4.21942     10.49277        -0.055997      0.008840     -0.044296
V	      0.10082      6.36462      6.33579        -0.013917      0.118734     -0.136198
Cr	      2.09737      0.04468      2.17023        -0.019414      0.189093     -0.043710
Fe	      8.17953      6.43204      6.36103         0.186056     -0.213894     -0.039823
Cu	      6.24455      8.47387     10.47330         0.051050      0.025657      0.205137
Cu	      6.29866      8.45258      6.34585        -0.073291      0.028107      0.037569
Cu	      4.22091      6.28349      6.29351        -0.048772     -0.031839      0.037371
O	      4.12257      4.11803      6.27348        -0.002532      0.090045      0.055708
O	      6.25168      8.58977      8.58377         0.013614     -0.054787     -0.333537
O	      2.08895      2.07221      2.05144         0.041481     -0.120435      0.024637
O	      4.23261      4.24164      1.93653        -0.021131     -0.017769      0.136385
O	      4.10331      1.92536      4.34754         0.015125      0.015708     -0.047366
O	      6.37275      4.25286      4.19003        -0.052198      0.096347      0.054148
O	      6.23117      1.89754      6.13879        -0.035077      0.069636      0.099357
O	      8.40691      4.25884      6.22893        -0.080190     -0.010925      0.015404
O	      1.97417      4.28167      4.10811         0.207789     -0.017464      0.136545
O	      4.15012      6.55801      4.30498         0.003765     -0.148435     -0.043858
O	      6.17657      6.43216      6.35835        -0.043435     -0.005691     -0.008890
O	      6.22725      4.19749      8.58745        -0.026278     -0.009470     -0.046628
O	      8.32828      6.26321      8.25965        -0.018884      0.025629      0.150907
O	      2.13595      6.26625      6.45553         0.003579      0.047716     -0.021273
O	      4.28907      8.68015      6.13951        -0.003702     -0.042445     -0.002857
O	      4.11818      6.36856      8.62058         0.072195     -0.007170     -0.083815
O	      6.14333      6.23557     10.58398         0.005746     -0.073615     -0.036339
O	      8.47759      8.60196     10.56318        -0.066505      0.032742      0.019760
