# total energy = -222.52622276 eV
 
CRYSTAL
PRIMVEC
0.007825 6.272507 6.257881 
6.306521 0.010523 6.255262 
4.221018 4.196722 -0.009696 
PRIMCOORD
36 1
Li	      4.23424      4.18134      0.06106        -0.017072     -0.033311     -0.005600
Li	      2.21121      8.22726      6.29048        -0.008866     -0.033425     -0.060077
Li	      4.22540      8.27557      8.34635         0.005176     -0.028944     -0.001517
Li	      4.18499      0.11073      4.10683         0.013347     -0.002699      0.045902
Li	      6.24170      8.37710     10.33497        -0.015884      0.029383      0.022763
Li	      2.21118      4.10308      2.06298         0.023127     -0.036854     -0.032338
Li	      2.17647      2.08394      4.04981         0.000657      0.013766      0.000180
Li	      4.06432      6.38045      6.36707         0.011698     -0.021738      0.002801
Li	      6.19052      6.40459      8.35313        -0.049196      0.002991      0.000605
Sc	      6.37281      4.24435      6.14463         0.091532      0.027262     -0.034470
Mn	      0.04188      2.06251      2.08977         0.070003     -0.029233     -0.001181
Mn	      8.44533      6.25362      6.23604        -0.002839     -0.024370     -0.068729
V	      6.32603      4.29987     10.46366        -0.007311     -0.087763      0.072875
Cr	      6.31081      8.37563      6.26445        -0.065778     -0.029521      0.016212
Fe	      8.35282      8.50927      8.43747         0.052433     -0.111285     -0.047082
Ni	      2.11600      6.27613      4.19602        -0.020737      0.021198     -0.043892
Ni	      2.09894      0.03381      2.09527         0.000436      0.017037     -0.008819
Ni	      4.20940      4.16217      4.12941        -0.038210      0.046639      0.036548
O	      1.93136      2.09361      2.02556        -0.066992      0.077307     -0.005117
O	      4.22532      4.34947      2.12442        -0.061679      0.065004     -0.124909
O	      4.23863      2.13013      4.35502        -0.020449     -0.076396      0.061177
O	      6.25815      4.19590      4.17196         0.121261      0.018273      0.132077
O	      6.18512      2.11835      6.38418         0.006079      0.002491     -0.022786
O	      8.40762      4.38327      6.25590        -0.018682      0.031144     -0.005640
O	      2.05566      4.18807      4.24520        -0.044933     -0.089818     -0.006497
O	      4.19561      6.37105      4.00925         0.098287      0.013020     -0.055059
O	      4.17573      4.07616      6.28551        -0.002924      0.021699      0.082161
O	      6.50599      6.32090      6.30805         0.037883     -0.007648      0.002143
O	      6.24442      4.06549      8.37839         0.047989     -0.013957     -0.022285
O	      8.56593      6.36174      8.26982         0.039662     -0.006446     -0.073672
O	      2.11273      6.15246      6.23346        -0.036977      0.021084      0.003925
O	      4.31652      8.31516      6.11014        -0.022949      0.018945      0.033239
O	      4.19675      6.21885      8.33078         0.065833      0.120740      0.023620
O	      6.37719      8.39449      8.28846        -0.077717     -0.102500      0.013296
O	      6.36045      6.08112     10.34002        -0.094762      0.093753      0.013652
O	      8.54580      8.33850     10.41086        -0.011445      0.094175      0.056493
