# total energy = -228.14081502 eV
 
CRYSTAL
PRIMVEC
-0.000944 6.073921 6.401149 
6.320942 -0.001352 6.400698 
4.226137 4.061153 -0.012414 
PRIMCOORD
36 1
Li	      8.36252      2.09692      6.43724        -0.046187      0.018925     -0.006007
Li	      4.31931      8.08363      8.48676         0.002948     -0.073074      0.078242
Li	      6.36094      8.06945     10.52938        -0.024058      0.006884     -0.147310
Li	      6.31203      6.10576      4.28905         0.065201     -0.050246      0.000398
Li	      8.44853      6.03415      6.52036        -0.020672      0.009061     -0.022993
Li	      6.36371      4.06734      6.55155         0.046341     -0.022083     -0.068368
Li	      6.36231      4.05665     10.56490        -0.055267      0.027895      0.026792
Li	      4.30171      4.04073      8.42332        -0.033772      0.055375      0.057678
Li	      6.30061      6.05432      8.47334        -0.008538      0.037832      0.020298
Sc	      4.27637      3.94838      4.33046         0.158766     -0.267754     -0.004893
Mn	     10.45124      4.04941      6.42287        -0.145042      0.115557     -0.115053
Mn	      6.35105      8.08703      6.44430         0.031627      0.022158      0.052148
V	      8.45341     10.10365     10.64925        -0.037835      0.157359     -0.429358
Cr	      4.25524      6.14976      6.40311        -0.047047      0.033827      0.165157
Fe	      2.17026      6.10685      8.54762         0.149108      0.003134      0.090562
Fe	      8.37354      6.16086     10.57223        -0.174657      0.177552      0.205466
Co	     10.52295      6.08917      8.54225         0.004724      0.060384     -0.043240
Cu	      2.03998      3.97914      2.13785         0.074462      0.021751     -0.014765
O	      1.90535      2.00553      2.15797        -0.072989      0.064284     -0.027616
O	      4.20217      4.09569      2.16235         0.034879      0.080601     -0.056576
O	      4.22934      1.87505      4.18883         0.007288      0.251400     -0.019267
O	      6.41397      4.03101      4.13729        -0.229173     -0.006476      0.033216
O	      6.27549      1.87694      6.64171        -0.004977     -0.109435      0.051124
O	      8.43042      4.06457      6.12167        -0.027800     -0.050772      0.518352
O	      2.17350      4.11845      4.47519        -0.063448     -0.042485      0.136737
O	      4.11887      6.08756      4.29563         0.038104      0.029259      0.010866
O	      4.31611      4.14016      6.35031         0.005175      0.030654      0.074345
O	      6.21562      6.17785      6.42041        -0.011757     -0.058839     -0.012345
O	      6.42406      3.92347      8.53216        -0.113572     -0.137893      0.002860
O	      8.54751      5.98136      8.64270         0.073691      0.049301     -0.200063
O	      2.14043      6.06750      6.39375         0.101737      0.024346     -0.033676
O	      4.14965      8.18106      6.43264        -0.007728     -0.036900      0.007457
O	      4.15027      6.11674      8.48891         0.101609      0.009529     -0.285511
O	      6.34129      8.20438      8.37596        -0.014169     -0.092725     -0.094199
O	      6.32233      6.10898     10.69441         0.232318     -0.005192     -0.003179
O	      8.42854      8.23046     10.55603         0.010710     -0.333193      0.052722
