# total energy = -227.35482370 eV
 
CRYSTAL
PRIMVEC
-0.013129 6.397478 6.290624 
6.159615 0.014161 6.263644 
4.121440 4.261911 -0.005772 
PRIMCOORD
36 1
Li	      2.05166      6.40326      8.35364        -0.043783      0.007519      0.045330
Li	      4.11694      8.48884      8.39026         0.010571     -0.170767     -0.002859
Li	      4.11720      0.04601      4.15854        -0.014610     -0.018970     -0.112559
Li	      8.24037      4.33380      8.34020        -0.032627      0.078408     -0.009739
Li	      4.04325      4.29599      4.19124         0.013735      0.036428      0.005638
Li	      6.07705      4.30863      6.35075        -0.072397      0.069046     -0.002199
Li	      8.20491      6.37836     10.42636        -0.042488      0.007376     -0.032810
Li	      4.12930      6.31375      6.33398         0.082465     -0.040038      0.128625
Li	      4.10143      4.28084      8.26882         0.031010      0.068006     -0.027319
Sc	      6.13014      4.32209     10.40120        -0.003846      0.138101     -0.134917
Mn	      4.11789      4.25548      0.06165        -0.110019      0.005301     -0.045110
Mn	      2.11112      2.12521      4.14137        -0.022433      0.023243      0.079822
V	      6.16021      2.26553      4.10166        -0.006183      0.097716      0.111006
Cr	     10.21093      6.41111      8.34280        -0.086598     -0.042716      0.105963
Fe	      2.10264      2.15563      0.07232        -0.054507     -0.059038      0.000176
Fe	      2.15891      4.31738      6.30646        -0.029468     -0.149680      0.067045
Co	      6.10328      6.39668      8.33170         0.619071     -0.097233      0.154361
Ni	      4.08379      2.16499      6.27287        -0.010819     -0.015795      0.069431
O	      1.99489      2.10505      2.13137        -0.040242      0.005144      0.004617
O	      4.09173      4.41829      1.98470         0.026099      0.062531     -0.023507
O	      4.10264      2.10591      4.18675        -0.040407      0.010927     -0.102363
O	      6.16617      4.03756      4.14139        -0.023821     -0.163191     -0.087698
O	      6.19229      2.19947      6.24436         0.096523     -0.081412      0.033816
O	      8.33219      4.17798      6.27121         0.119266     -0.022530      0.017806
O	      2.00747      4.31019      4.30484        -0.031092     -0.042684     -0.067198
O	      4.25498      6.42302      4.07246         0.009138      0.058870     -0.121507
O	      4.03730      4.25120      6.26531         0.023813      0.061611     -0.036923
O	      6.18343      6.44747      6.17216        -0.148468      0.088407     -0.076961
O	      6.14264      4.21785      8.38142         0.015841      0.306885      0.030173
O	      8.14476      6.39665      8.32172        -0.116878     -0.033626      0.016333
O	      1.95558      6.38873      6.34205        -0.059310      0.065452      0.048762
O	      4.06534      8.46867      6.28332         0.114248      0.158035     -0.088519
O	      4.32165      6.36937      8.36993        -0.048337      0.013766      0.028356
O	      6.16200      8.48116      8.43446        -0.082371     -0.321637     -0.158501
O	      6.15548      6.51766     10.52449        -0.088604     -0.032751      0.101149
O	      8.12025      8.50600     10.58264         0.047531     -0.070702      0.082277
