# total energy = -229.01162690 eV
 
CRYSTAL
PRIMVEC
0.010879 6.289610 6.301542 
6.383227 -0.018491 6.330275 
4.245762 4.202956 -0.002597 
PRIMCOORD
36 1
Li	      4.42495     10.35032      6.40067        -0.056750      0.058437      0.021365
Li	      2.25131      8.28222      6.35777        -0.013984      0.082717     -0.003183
Li	      1.98376      0.07070      1.92236         0.031610     -0.090690      0.053839
Li	      4.34817      6.15230      2.15069        -0.030283      0.049545     -0.133692
Li	      2.27713      4.14188      2.14589        -0.040737      0.062044     -0.175166
Li	      4.15892      4.32003      4.07425         0.085877     -0.034915      0.014065
Li	      4.31262      8.30499      4.47758        -0.112455      0.083726     -0.037295
Li	      1.95062      4.38424      6.17360         0.047413      0.010906      0.107623
Li	      4.09025      6.40178      6.19287         0.061880     -0.032948      0.109615
Sc	      6.38652      6.23940      8.39137        -0.040407     -0.238061     -0.049051
Mn	      6.39448      2.11069      4.25712         0.000431      0.105064     -0.071683
Mn	      2.00532      2.21462      4.18624         0.048352     -0.177852     -0.215920
V	      4.28317      4.19608      8.38899        -0.220875      0.028324     -0.107984
Cr	      4.16769      2.18337      2.04039         0.195384      0.083482      0.127628
Fe	      8.53026     10.40810     10.59927        -0.163211     -0.047582      0.123456
Fe	      4.29624      2.09171      6.32322         0.097121     -0.170570      0.079965
Co	      6.36017      4.17310      6.31149         0.103916     -0.237686     -0.006368
Co	      2.27288      6.23381      4.27472         0.039710     -0.028044      0.057115
O	      2.20070      2.08380      2.23921         0.049416      0.052710      0.335579
O	      4.27547      4.10315      2.08989        -0.013403     -0.200224      0.049818
O	      4.14896      2.01036      4.24336        -0.286497      0.081240     -0.124510
O	      6.45269      4.07147      4.35384         0.053579      0.140804      0.124806
O	      6.30598      2.21332      6.22539        -0.106114      0.028511     -0.085103
O	      8.34238      4.25121      6.27939        -0.121905      0.095632     -0.038575
O	      2.09730      4.29637      4.19373        -0.033279     -0.276856      0.167991
O	      4.31597      6.31108      4.17869         0.589242      0.062734      0.063679
O	      4.39042      4.09522      6.40090         0.043592     -0.086764     -0.528908
O	      6.45556      6.16365      6.26426        -0.060138      0.062305     -0.232018
O	      6.24117      4.18420      8.24355         0.749693      0.266809     -0.112449
O	      8.48759      6.36198      8.39772        -0.167144     -0.353247      0.012939
O	      2.14751      6.30944      6.13950        -0.076664     -0.043271     -0.155770
O	      4.24868      8.37047      6.45111         0.083003     -0.058289     -0.104028
O	      4.28618      6.22510      8.52745         0.035930      0.636225      0.020156
O	      6.45037      8.37038      8.52430        -0.564655     -0.047602      0.280711
O	      6.30676      6.42115     10.50981        -0.078795      0.103762     -0.030706
O	      8.59693      8.38567     10.40585        -0.128852      0.029626      0.462062
