# total energy = -225.57456553 eV
 
CRYSTAL
PRIMVEC
0.018014 6.495186 6.342407 
6.236680 0.017208 6.343699 
4.143879 4.316669 0.026485 
PRIMCOORD
36 1
Li	      4.22186     10.72660      6.40324        -0.075398      0.002647     -0.019334
Li	      2.11563      2.12192      0.16503         0.021668     -0.017754     -0.032565
Li	      2.01307      0.11162      1.96306         0.066837      0.013162      0.001031
Li	      4.07212      2.31005      1.96866         0.061311      0.019462      0.055980
Li	      6.17746      2.06143      4.33418         0.018653     -0.082762      0.025350
Li	      2.18602      4.22798      1.95083        -0.024626     -0.024246     -0.106292
Li	      4.16133      8.71909      4.38942         0.025527      0.029826      0.014102
Li	      2.09877      6.45901      4.36936        -0.024674      0.009652      0.006838
Li	      4.02628      6.59406      6.32715        -0.002045     -0.031597     -0.015546
Sc	      2.05775      2.24346      4.13825         0.019657      0.028988      0.007684
Mn	      8.35081     10.79685     10.60712        -0.048959      0.010297      0.102763
Mn	      2.03706      4.44467      6.36644         0.031240      0.002060      0.044903
V	      8.30503      8.63684      8.57783        -0.072128      0.065752     -0.234063
Cr	      6.24195      6.50129      8.47374        -0.029960      0.036326     -0.069636
Fe	      4.15262      4.36789      4.10690         0.089143     -0.079491      0.283460
Fe	      6.27565      4.19873      6.37023        -0.094204      0.025496     -0.061627
Cu	      4.20399      2.13793      6.33661         0.040595     -0.065497     -0.083581
Ni	      4.16410      6.40261      2.13112         0.000435      0.111936      0.014091
O	      2.06449      2.19043      2.14780         0.124906      0.027020     -0.001249
O	      4.12784      4.36109      2.22308        -0.026826     -0.107847     -0.207644
O	      4.17732      2.34247      4.32614         0.014471     -0.024341     -0.093679
O	      6.28607      4.41134      4.36686        -0.067544      0.008427     -0.038636
O	      6.15616      2.26042      6.40316         0.111698     -0.011788     -0.107190
O	      8.24835      4.18896      6.20980         0.068317     -0.081905     -0.032887
O	      2.14544      4.33055      4.43149        -0.041388      0.006241      0.029670
O	      4.16849      6.36260      4.21199        -0.044549      0.060888      0.078114
O	      4.15821      4.51181      6.49475        -0.039481      0.067352     -0.029406
O	      6.33596      6.57327      6.42293        -0.164525      0.037887     -0.006284
O	      6.17685      4.43920      8.35505         0.015148     -0.010669      0.087756
O	      8.27908      6.62941      8.38965        -0.109402     -0.016427      0.121043
O	      2.05483      6.29096      6.37170        -0.018913     -0.047528     -0.015427
O	      4.34551      8.60142      6.36877         0.021625      0.051577      0.019034
O	      4.21373      6.36584      8.61495         0.048374      0.036759     -0.031797
O	      6.31747      8.53816      8.34106         0.004267     -0.041494     -0.008771
O	      6.11188      6.50508     10.46323         0.107761     -0.041396      0.036047
O	      8.28903      8.56965     10.34482        -0.007007      0.032990      0.267746
