# total energy = -224.91283413 eV
 
CRYSTAL
PRIMVEC
-0.014806 6.422536 6.423465 
6.069278 0.011602 6.396202 
4.056612 4.273664 -0.002295 
PRIMCOORD
36 1
Li	      2.03726      0.15120      2.10486         0.019219     -0.043163     -0.006536
Li	      3.87450      2.13139      2.21880         0.009972     -0.066118     -0.046872
Li	      8.07037      4.35834      4.33891         0.003333     -0.094737     -0.004959
Li	      2.00655      4.07493      2.05078        -0.074071     -0.017193      0.044394
Li	      2.02897      2.12526      4.21167        -0.101052      0.084243      0.068489
Li	      8.01904      6.36436      6.39353        -0.064192      0.043366      0.063683
Li	      6.19317      4.34255      6.35752        -0.027818      0.079567      0.086321
Li	      2.02847      6.43970      4.34633         0.089263     -0.044733      0.009315
Li	      6.05519      8.48943      6.40477         0.042415     -0.049799     -0.022952
Sc	      3.94009      4.26300      4.21492        -0.327555      0.478492      0.105294
Mn	      0.02614      4.27941      4.27186         0.144872     -0.142003      0.026627
Mn	      4.05363      4.31215      8.48842         0.161794     -0.028757     -0.352226
V	      6.05304      2.17146      4.26977        -0.533992      0.084243      0.807880
Cr	      6.12506      6.45063      8.53205         0.050374     -0.108360     -0.277461
Fe	      4.04434      4.27082      0.12170         0.053977     -0.360885      0.026796
Fe	      4.04774      6.40349      6.41613         0.043853      0.010444     -0.026902
Cu	      2.02812      2.15561      0.12593        -0.175089     -0.009104      0.081083
Cu	      4.07347      6.37214      2.17215        -0.137891     -0.027422      0.096632
O	      1.91004      2.11593      2.24767         0.236919     -0.048652     -0.118592
O	      4.01828      4.27976      2.11005        -0.001317     -0.141586      0.152102
O	      4.11290      2.17802      4.24921         0.690731     -0.105115     -0.125223
O	      6.06342      4.01913      4.26613         0.057388     -0.525333      0.004945
O	      6.07038      2.00951      6.21188         0.262806      0.294979     -1.568582
O	      8.17057      4.15103      6.39288         0.135024      0.354950     -0.064260
O	      1.91831      4.31695      4.27750         0.168351     -0.040770     -0.004987
O	      4.06263      6.34594      4.43781        -0.038247     -0.097765      0.097842
O	      4.01775      4.37279      6.50422         0.050659     -0.005069     -0.373888
O	      6.02974      6.41084      6.55137         0.049595      0.057438      0.058726
O	      6.02521      4.40620      8.65221         0.108508      0.093902      0.107412
O	      8.16054      6.66522      8.47423        -0.141332      0.016160      0.029346
O	      2.01159      6.57078      6.45069        -0.244208     -0.208399     -0.004529
O	      4.05185      8.60549      6.25341         0.241054      0.047141      0.041768
O	      4.10453      6.29701      8.47343        -0.005239      0.110367      0.072657
O	      6.17881      8.46346      8.62385        -0.319667      0.040611      0.576727
O	      6.09812      6.61451     10.59984        -0.053551      0.348649      0.073802
O	      8.15457      8.59640     10.43607        -0.374887      0.020411      0.366129
