# total energy = -224.46392121 eV
 
CRYSTAL
PRIMVEC
0.005935 6.460667 6.364164 
6.173329 0.044706 6.324491 
4.144395 4.308907 0.001710 
PRIMCOORD
36 1
Li	      8.18971      8.71125     12.56480        -0.030812      0.040764     -0.025030
Li	      6.23274      4.34137      2.28092        -0.000857      0.039570     -0.040037
Li	      4.21548      8.47763      8.66803         0.009844     -0.086571     -0.031486
Li	      8.17044      4.40772      4.26159         0.023989     -0.008942      0.012387
Li	      6.19592      2.32492      4.19815         0.058889      0.057446     -0.025737
Li	      4.26729      4.17672      4.28264        -0.024655     -0.020293      0.019826
Li	      4.14114      2.14117      6.13212         0.015283     -0.042192      0.054186
Li	      6.20253      4.32063      6.14163        -0.001229     -0.004441      0.040322
Li	      8.20722      6.65584     10.60098        -0.023834      0.071474     -0.016565
Sc	      2.14274      4.29442      2.12702         0.050744      0.082128     -0.012095
Mn	      6.22687      6.56688     12.61353         0.025178      0.017042      0.013382
Mn	      2.07157      4.29757      6.33101        -0.019862      0.027543      0.045967
V	      6.19898      2.18580      8.38218        -0.202164     -0.011896     -0.026854
Cr	      6.17792      6.50200      8.45883         0.061615      0.001668      0.022629
Fe	     10.17555      8.68387     10.59808         0.117307     -0.026558     -0.028422
Fe	      4.06405      6.43257      6.35826        -0.043847      0.079065     -0.038085
Ni	      6.25090      6.38996      4.28450        -0.101466      0.022896      0.041005
Ni	      8.21634      8.68785      8.48260         0.026401     -0.053098      0.014573
O	      6.21206      4.47130      4.23306        -0.007427     -0.104605      0.022712
O	      1.85716      2.23415      2.16111         0.176059     -0.004253     -0.061113
O	      4.15903      4.53322      2.10442         0.014080     -0.061060     -0.008201
O	      4.00786      2.16821      4.20665         0.139849     -0.012581     -0.039595
O	      6.16827      2.16773      6.49221        -0.001238      0.069599     -0.060862
O	      8.46038      4.31330      6.40979         0.014175      0.024719     -0.005840
O	      2.01205      4.11751      4.30703         0.035882      0.060612     -0.032466
O	      4.20676      6.56389      4.24640        -0.046307     -0.052339     -0.003923
O	      3.98476      4.43751      6.37928        -0.033503     -0.099754     -0.114730
O	      6.11129      6.42243      6.44214         0.076454     -0.020140      0.020675
O	      6.18544      4.33906      8.49146         0.104492      0.020384      0.025501
O	      8.35101      6.48606      8.51081        -0.039335     -0.088062      0.000257
O	      2.04014      6.49515      6.32946        -0.084427     -0.020461     -0.042354
O	      4.23733      8.61210      6.29489         0.014893     -0.035618      0.028036
O	      4.19935      6.45700      8.34158        -0.046831      0.083243      0.085108
O	      6.20058      8.47914      8.35557        -0.140072     -0.033164      0.012539
O	      6.22098      6.36163     10.48484        -0.003673      0.055783      0.003307
O	      8.28290      8.64338     10.51886        -0.113597      0.032091      0.150984
