# total energy = -229.40072632 eV
 
CRYSTAL
PRIMVEC
0.006911 6.159564 6.420164 
6.280883 0.007268 6.419243 
4.196673 4.115377 -0.004218 
PRIMCOORD
36 1
Li	      2.06013      2.06388      0.05080        -0.016732     -0.013804      0.038410
Li	      4.18354      2.07536      2.13999        -0.055452      0.024304      0.025699
Li	      6.24669      2.07598      8.53631         0.006558     -0.018980     -0.010950
Li	      8.36431      4.17077      8.54931         0.059984     -0.001606      0.005262
Li	      4.19184      4.15283      4.35463         0.025525      0.038404      0.065165
Li	      4.22907      2.07048      6.45669         0.000964     -0.031653      0.014911
Li	      6.28739      4.10446     10.61848         0.033916     -0.027978     -0.073479
Li	      2.17521      4.11677      6.40452         0.050566     -0.021740     -0.029499
Li	      8.41382      8.18371      8.54710         0.017984     -0.012158     -0.022764
Sc	      2.10561      2.20173      4.23245        -0.020157      0.036114     -0.039747
Mn	      6.26000      4.08563      2.15106        -0.106576      0.035720      0.037278
Mn	      8.39543     10.21979     10.69861        -0.035355      0.042874     -0.001266
V	      4.17960     10.16027      6.44719         0.034164      0.106888      0.021508
Cr	      2.13562      6.16152      4.24953         0.041340     -0.006878     -0.042531
Fe	      6.22761      3.98790      6.48423         0.094599      0.052898     -0.072337
Fe	      4.15875      6.13400      6.43721        -0.025845      0.164594     -0.009761
Fe	      6.37930      6.18555      8.52493        -0.061046      0.017354      0.059316
Cu	      6.23354      2.06826      4.25409        -0.071726      0.025614     -0.010432
O	      2.06373      1.90436      2.21636         0.010660     -0.013171     -0.065274
O	      4.30424      4.11790      1.92586        -0.014996      0.000839      0.035276
O	      4.21124      1.88828      4.28445        -0.055142     -0.046319      0.018159
O	      6.27643      4.22630      4.44109         0.026976      0.148253     -0.038202
O	      6.27058      1.96014      6.34192         0.018669     -0.027125      0.061437
O	      8.48255      4.09456      6.33326        -0.109426     -0.025204      0.016692
O	      2.20050      4.18505      4.23759        -0.039729      0.022811      0.030939
O	      4.15755      6.25749      4.42653        -0.033283     -0.021667     -0.067411
O	      4.25730      4.17264      6.42789        -0.067797     -0.050020      0.007651
O	      6.19602      6.18828      6.48924         0.078279     -0.009293     -0.053204
O	      6.32505      4.18846      8.40708        -0.020307     -0.048042      0.168054
O	      8.30578      6.19942      8.66712         0.130567      0.014860     -0.002220
O	      2.09302      6.16822      6.32353        -0.022666      0.009717     -0.034138
O	      4.21477      8.35622      6.41318        -0.012220     -0.194692      0.014003
O	      4.14721      6.17066      8.53076        -0.007024     -0.007978      0.051302
O	      6.25810      8.25223      8.63649        -0.021574      0.036081     -0.082472
O	      6.35949      6.03546     10.69961         0.014732     -0.186863     -0.014801
O	      8.26412      8.27795     10.67622         0.151572     -0.012156     -0.000573
