# total energy = -90.57841563 eV
 
CRYSTAL
PRIMVEC
-0.027447 2.220755 2.051838 
2.052649 -2.220451 -0.026674 
10.462635 13.394568 0.029884 
PRIMCOORD
16 1
Li	      2.14276      2.45058     -0.11949        -0.010955      0.022271      0.011043
Li	      4.08880      2.01933     -2.06634         0.010987     -0.028954     -0.011978
Li	      6.34516      6.87690     -4.31222        -0.024329      0.007386      0.024097
Li	      8.33122     11.09112     -6.29750        -0.004935     -0.010776      0.005229
Mn	     12.47127     11.15143    -10.43864         0.037052      0.011651     -0.037221
Mn	      4.23976      6.75218     -2.20931        -0.006514      0.001815      0.007543
Ni	      8.32578      6.74226     -6.29202         0.000705      0.003527     -0.001312
Ni	     10.29725     10.96719     -8.26396         0.066679      0.028847     -0.067533
O	     10.45109     13.22483     -8.41915         0.044706      0.013938     -0.043577
O	      8.18301      8.90931     -6.14993         0.139789      0.038627     -0.141761
O	     10.39456      8.97128     -8.36044        -0.126492     -0.058184      0.127249
O	      6.37338      8.95422     -4.34053        -0.138101     -0.030555      0.136809
O	      4.35742      4.62769     -2.32616        -0.007943      0.023992      0.008349
O	      6.23123      4.50558     -4.19981         0.011442     -0.008545     -0.009087
O	      1.87789     -0.09391      0.14612         0.009740     -0.011201     -0.008560
O	      2.08129      4.46511     -0.05886        -0.001832     -0.003841      0.000711
