# total energy = -228.74060680 eV
 
CRYSTAL
PRIMVEC
-0.015991 6.416837 6.271228 
6.265346 -0.020925 6.276018 
4.180386 4.284739 -0.017616 
PRIMCOORD
36 1
Li	      8.35457      2.16239      6.23951         0.000600     -0.016883      0.016004
Li	      6.39953      4.27478      2.20869         0.009315      0.033667     -0.032640
Li	      4.15016      2.02514      2.23831        -0.020911     -0.024860     -0.077478
Li	      4.09592      6.41428     10.32522         0.020975     -0.010013      0.029410
Li	      6.25896      8.63392     10.32739         0.022954      0.011192     -0.064107
Li	      2.11965      2.08410      4.07959        -0.008785     -0.006893      0.020671
Li	      4.23684      4.21217      4.11403        -0.009517     -0.041234     -0.058130
Li	      8.37494      6.46451     10.44468        -0.033904      0.016495      0.076896
Li	      4.18453      6.38698      6.32005        -0.031638     -0.014463     -0.030013
Sc	      4.15137      2.10193      6.06741         0.009639      0.004695     -0.063084
Mn	      2.11600      4.26001      2.18175         0.119739     -0.029951     -0.027419
Mn	      2.08946      4.28372      6.24365        -0.057638      0.111472      0.017404
V	      6.34482      6.42959     12.46438         0.163218      0.152890      0.166100
Cr	      6.19659      6.41414      8.41547        -0.039525      0.075458      0.028723
Fe	      4.24350      6.37179      2.19224        -0.053710      0.010463     -0.093999
Fe	      6.23773      4.25039      6.06661         0.052339     -0.052159      0.147609
Fe	      4.04518      8.50039      4.23469         0.079377     -0.032281      0.054079
Ni	      8.31014      8.63560      8.39843        -0.046809     -0.114230      0.021318
O	      2.00970      2.34571      2.09138         0.081825      0.092759      0.008123
O	      4.12134      4.39917      1.97329        -0.120910     -0.028370      0.074545
O	      4.17309      2.15885      4.16791         0.001556     -0.015157      0.044814
O	      6.26091      4.26549      4.25297        -0.012728      0.006852     -0.272553
O	      6.24172      2.13243      6.36027        -0.045381      0.080070      0.007899
O	      8.47533      4.28524      6.26786        -0.100032      0.025886      0.013530
O	      1.99514      4.28504      4.29795         0.062161      0.000737      0.067381
O	      4.14728      6.50749      4.10787         0.033788     -0.008217      0.125611
O	      4.14428      4.21910      6.32177        -0.037952     -0.027949     -0.094651
O	      6.26288      6.25025      6.39725        -0.004926      0.014954      0.028264
O	      6.28615      4.27611      8.37283         0.150705      0.019563     -0.016467
O	      8.32199      6.24220      8.38015        -0.026077     -0.031161     -0.040574
O	      1.85738      6.49838      6.32479        -0.018256     -0.082844      0.056096
O	      4.25339      8.72125      6.21884         0.035073     -0.069639      0.013717
O	      4.23977      6.37141      8.33250         0.064068      0.067588      0.011470
O	      6.30169      8.39813      8.20982        -0.149906     -0.039069     -0.027613
O	      6.23831      6.33267     10.50609        -0.001632     -0.094454     -0.244932
O	      8.40488      8.51457     10.39650        -0.087094      0.015084      0.113995
