# total energy = -224.91292414 eV
 
CRYSTAL
PRIMVEC
0.018663 6.249527 6.277927 
6.301179 0.017498 6.279400 
4.213499 4.180459 -0.001375 
PRIMCOORD
36 1
Li	      2.01985      2.12264      0.12412        -0.042457      0.023485      0.061173
Li	      6.24090      4.27890      2.15712        -0.018952     -0.002683     -0.021820
Li	      6.32462      2.23046      8.39474        -0.034582      0.030492      0.059436
Li	      8.28431      4.17347      8.39389        -0.031022      0.038610      0.058090
Li	      4.25585      4.21373      4.15531        -0.004386     -0.014017      0.039560
Li	      6.31325      4.12967      6.45672        -0.041333      0.005753      0.000588
Li	      6.35689      4.10042     10.26895         0.047521     -0.026803      0.037048
Li	      4.38384      4.06720      8.38310         0.080855     -0.058600     -0.021064
Li	      6.39591      6.10871      8.37298         0.016124     -0.043076     -0.020875
Sc	      8.40491     10.30536     10.39053         0.000731     -0.026985     -0.008271
Mn	      0.01547      0.02377      0.02173         0.087395     -0.134184      0.017059
Mn	      4.14985      2.15401      2.08792         0.018936      0.022983     -0.051909
Mn	      4.22134      6.26165      6.28044         0.007382     -0.091907     -0.009889
V	      2.14204      4.16564      6.24432        -0.020160      0.017245      0.129385
Cr	      8.46121      6.26103      6.41077        -0.147424      0.138660     -0.011798
Co	      8.42752      6.29597     10.40720         0.032747     -0.073128     -0.190305
Cu	      6.31121      2.14448      4.16891         0.019540      0.057194     -0.055450
Ni	      2.07255      2.06932      4.12004         0.001490      0.043119      0.068256
O	      6.31439      4.19901      8.36004        -0.004333     -0.073231      0.041321
O	      2.24095      2.10805      2.16083         0.011834     -0.007539     -0.097966
O	      4.23890      4.07769      1.92044        -0.020526      0.026827     -0.037393
O	      4.25368      2.06135      4.32065        -0.022608     -0.002922      0.041279
O	      6.36266      4.14710      4.19673        -0.006385      0.070432      0.018181
O	      6.22635      1.96420      6.43941         0.011396     -0.058128     -0.011576
O	      8.57116      4.24059      6.23160         0.040896      0.035759     -0.028523
O	      2.12982      4.29245      4.32863         0.006515      0.093530     -0.058253
O	      4.12359      6.23989      4.33401        -0.032190      0.029852      0.087656
O	      4.07753      4.14657      6.34766         0.355021      0.038095     -0.044775
O	      6.36549      6.37458      6.15381         0.019827     -0.214059      0.134045
O	      8.37312      6.27062      8.43986         0.009552     -0.006044      0.029107
O	      2.07405      6.22359      6.11833        -0.126700      0.223034     -0.010817
O	      4.29993      8.40615      6.16825        -0.252927      0.084267     -0.019722
O	      4.22056      6.40395      8.28010        -0.004286      0.006012     -0.107234
O	      6.14790      8.40619      8.08017         0.020973      0.020654     -0.023144
O	      6.41180      6.37167     10.58029        -0.065755     -0.107463      0.054839
O	      8.33032      8.26240     10.43310         0.087294     -0.065238     -0.046235
