# total energy = -225.66067642 eV
 
CRYSTAL
PRIMVEC
0.045206 6.205461 6.434331 
6.257442 0.030957 6.449386 
4.187673 4.163577 0.004050 
PRIMCOORD
36 1
Li	      6.19559      0.11171      6.44289         0.034692      0.017441     -0.039012
Li	      8.24846      2.19561      6.53095        -0.014197     -0.048881      0.014988
Li	      4.04923      2.19362      2.23763         0.049279     -0.033662      0.051392
Li	      0.09278      2.05957      2.09105        -0.024106     -0.004958      0.035141
Li	      2.16992      3.97499      2.03440        -0.007160     -0.029856     -0.003620
Li	      2.07657      2.07487      4.23267        -0.064730      0.047049     -0.037102
Li	      4.27476      2.04320      6.38386        -0.044264      0.039792      0.023454
Li	      4.17221      8.23194      4.33029        -0.027720     -0.027972      0.019336
Li	      4.20250      6.21128      6.29168        -0.014363      0.018635     -0.086382
Sc	      6.28512      6.24651      8.58878         0.036588     -0.022283      0.008789
Mn	      2.08392      0.10632      2.09576        -0.039561     -0.024253     -0.023365
Mn	      4.23191      4.15311      4.31669         0.002752      0.240215     -0.025685
Mn	      4.24176      4.14149      8.56066        -0.014485     -0.034020     -0.063180
V	      6.12704      8.28040      6.36008         0.205122      0.065927     -0.070186
Cr	      2.15375      6.23219      4.32091         0.012222     -0.183021     -0.097697
Co	      6.27956      4.16867      6.43879        -0.093642     -0.047074      0.054858
Cu	      8.36097      4.20228      4.45785        -0.045280      0.004483     -0.116672
Cu	      6.27261      2.05755      4.49023        -0.013594     -0.067565     -0.103600
O	      8.20487      4.20758      6.38057        -0.080794      0.012334      0.060728
O	      2.14616      1.94924      2.15368        -0.002158      0.067427     -0.020461
O	      4.33506      4.16237      2.34355         0.017244     -0.038150     -0.026705
O	      4.32857      2.18453      4.26734        -0.011630     -0.097978      0.144098
O	      6.15685      4.20190      4.48690         0.001429      0.003027      0.048535
O	      6.26353      2.28051      6.51885        -0.015773      0.095870     -0.025816
O	      2.24089      4.17849      4.37479        -0.023015     -0.075767      0.011998
O	      4.13106      6.10311      4.30946         0.017046      0.081678     -0.019340
O	      4.20416      4.15374      6.32043         0.130152      0.008576     -0.000305
O	      6.28218      6.28217      6.50072         0.011300     -0.122542      0.008205
O	      6.19620      4.19635      8.42927         0.006406      0.029103     -0.048071
O	      8.35662      6.38137      8.71880        -0.020916      0.011849     -0.034530
O	      2.12086      6.07974      6.33124        -0.009222      0.045608      0.033878
O	      4.39635      8.27286      6.40493        -0.251309      0.008915     -0.009525
O	      4.14985      6.11957      8.73546         0.047113      0.040426      0.003979
O	      6.43540      8.40692      8.34753        -0.001946      0.009276      0.027122
O	      6.37564      6.19576     10.67049         0.145529     -0.059335      0.057228
O	      8.30827      8.26568     10.72216         0.102993      0.069686      0.247528
