# total energy = -225.32594480 eV
 
CRYSTAL
PRIMVEC
-0.026748 6.356846 6.244662 
6.262388 -0.007532 6.225757 
4.194635 4.245037 -0.024952 
PRIMCOORD
36 1
Li	      6.34022      8.43380     10.40502        -0.052991     -0.022100     -0.017066
Li	     10.36041      6.46144      8.41933        -0.015294      0.020845      0.016825
Li	      6.11790      6.28507      4.21246        -0.005638      0.000681     -0.021611
Li	      4.23427      4.36498      4.21350         0.002367      0.053315     -0.018797
Li	      6.15720      4.33547      6.22386         0.002728      0.064450      0.014116
Li	     10.33174      8.45429     10.34760         0.035524     -0.061837     -0.016822
Li	      8.44533      6.45139     10.34951         0.011187      0.005081      0.027634
Li	      4.28911      6.28803      6.06803         0.011730      0.007543      0.001778
Li	      6.24465      6.30462      8.27473         0.022545     -0.005703     -0.035995
Sc	      8.21483      4.26618      8.45619        -0.012676     -0.032226      0.033853
Mn	      6.23518      6.35699     12.40462        -0.002961     -0.042250      0.033544
Mn	      6.27305      4.24624      2.12816        -0.057200      0.103036     -0.149072
Mn	      4.18571      8.42957      8.34367         0.067736     -0.034203      0.093546
V	      4.16140      2.16699      6.15890        -0.152136     -0.086814      0.029050
Cr	      2.05998      4.21679      6.15481         0.180037      0.077255      0.005645
Co	      8.33219      8.44823     12.34127        -0.111235      0.008474     -0.049486
Ni	      8.34723     10.55243     10.36730         0.015118     -0.037101      0.029183
Ni	      8.43593      8.41635      8.33550        -0.091378      0.028959     -0.014747
O	      4.15581      6.34373      4.14870         0.021944      0.020892     -0.035688
O	      2.25902      2.12274      1.97244        -0.037233     -0.142148      0.097275
O	      4.21876      4.06462      1.98329         0.038220      0.080089     -0.017725
O	      4.22532      2.06349      4.33661         0.001637      0.047925     -0.131679
O	      6.31723      4.24816      3.98452        -0.090656     -0.036354      0.048128
O	      6.19912      1.91232      6.27814         0.273597      0.094923      0.018192
O	      8.49259      4.27475      6.23172         0.045646      0.089065      0.069782
O	      2.12061      4.27995      4.21622         0.012105      0.005931     -0.064772
O	      4.08950      4.12579      6.28799         0.053017      0.080819     -0.109877
O	      6.38749      6.48115      6.18544        -0.042202     -0.079362      0.005399
O	      6.25706      4.24504      8.25465         0.049167      0.015868      0.014644
O	      8.35008      6.32194      8.11037        -0.008199     -0.036155      0.070318
O	      1.91880      6.32703      6.36530         0.013861     -0.178383      0.029983
O	      4.24210      8.64048      6.17566        -0.223515     -0.026467     -0.053955
O	      4.08555      6.44553      8.30534        -0.023516      0.015059     -0.105668
O	      6.16459      8.49178      8.19592        -0.012705      0.014957      0.053568
O	      6.20534      6.37291     10.56309         0.077028     -0.007253      0.005999
O	      8.31526      8.51670     10.34770         0.004343     -0.006811      0.144499
