# total energy = -226.82192189 eV
 
CRYSTAL
PRIMVEC
-0.003591 6.367998 6.143550 
6.343923 -0.016886 6.158073 
4.218374 4.243358 -0.000350 
PRIMCOORD
36 1
Li	      6.34482      6.30184     12.21182         0.058352     -0.187831      0.001920
Li	      8.46601      8.45956     12.19288         0.127855     -0.068463     -0.010655
Li	      8.43952      4.31887      4.20060         0.019167      0.085984      0.000812
Li	      6.32611      2.07312      4.21564         0.070252     -0.133371      0.030502
Li	      4.23996      4.20922      4.20666        -0.029389     -0.002792     -0.039207
Li	      4.24082      2.16270      5.98991        -0.016930      0.026881     -0.042323
Li	      4.19552      8.51135      4.25758        -0.034754      0.014152      0.183022
Li	      2.06758      4.23058      6.07439        -0.152917      0.067181      0.040529
Li	      4.24638      6.38614      6.06861        -0.032377      0.147041      0.009961
Sc	      4.20839      4.30456      8.17343        -0.132280      0.131563      0.121784
Mn	      2.09148      6.36958      8.16775        -0.050069     -0.013336     -0.356498
Mn	      6.34035      2.11316      8.17796         0.047259     -0.098832     -0.033865
Mn	      2.08926      6.37704      4.19681        -0.187810      0.192178      0.304691
V	      8.46442      4.22561      8.15896         0.175384      0.016312     -0.302514
Cr	      4.26380      8.46586      8.16534        -0.036532      0.038790     -0.116061
Co	      6.36353      6.37567      4.20114         0.235099     -0.322595     -0.491393
Co	      6.31828      6.37601      8.19552        -0.062465      0.023607      0.039571
Cu	      6.27576      4.21356      6.05137         0.191867     -0.080439      0.098425
O	      2.16613      2.21632      2.08770        -0.039700     -0.068112      0.747467
O	      4.13308      4.20757      2.00588         0.041123      0.119197      0.013441
O	      4.15528      2.11676      3.97447        -0.722701      0.034462      0.466509
O	      6.33418      4.27317      4.00701        -0.000180      0.895972      0.361882
O	      6.33004      2.20448      6.29035         0.007495      0.000435      0.048124
O	      8.38371      4.25857      6.34549        -0.092375     -0.003857      0.070036
O	      2.10344      4.34513      3.95315         0.042828     -0.511643      0.168603
O	      4.15356      6.35052      3.96936         0.279204     -0.042392     -0.017125
O	      4.30150      4.19674      6.17837        -0.056060     -0.027068     -0.072615
O	      6.34608      6.23191      6.17553         0.074760     -0.000508     -0.859231
O	      6.40928      4.20093      8.25286        -0.061229      0.072269     -0.037849
O	      8.45337      6.28600      8.31364         0.033453     -0.001571     -0.009646
O	      2.11523      6.33769      6.08919         0.025700      0.009410     -0.163366
O	      4.21507      8.47087      6.29719         0.009452     -0.044628     -0.333514
O	      4.22731      6.40683      8.24072         0.013228     -0.147084      0.028416
O	      6.28838      8.49454      8.18335         0.170655     -0.064417      0.025980
O	      6.50824      6.34022     10.20762         0.134960      0.153101      0.149121
O	      8.46364      8.27387     10.24685        -0.050322     -0.209598     -0.024932
