# total energy = -230.82167550 eV
 
CRYSTAL
PRIMVEC
-0.013583 6.406806 6.278648 
6.142132 -0.000322 6.266043 
4.104847 4.273116 -0.009853 
PRIMCOORD
36 1
Li	     10.10555      4.46051      6.30472        -0.018419      0.022264      0.013646
Li	      8.10025      2.15695      6.36148        -0.017313      0.016832     -0.003612
Li	      6.11691      2.21304      4.31050        -0.026246      0.040262     -0.048813
Li	      6.14623      2.20401      8.19360         0.018721     -0.023526      0.033046
Li	      2.06445      4.16972      2.01489         0.024530     -0.095425     -0.019618
Li	      2.09095      2.12062      4.08245         0.003168     -0.004214      0.019458
Li	      6.18516      4.12638      6.27327         0.008602      0.037499      0.047743
Li	      2.06217      4.28864      6.27769        -0.038625     -0.026719      0.044913
Li	      6.16696      6.35072      8.36334        -0.008308      0.009731     -0.025902
Sc	      1.96166      0.07486      2.06362        -0.034201     -0.029341     -0.056201
Mn	      8.19696      4.35207      4.24512        -0.011321      0.047085     -0.000786
Mn	      8.11792      6.38520     10.46076         0.037297     -0.061098     -0.101311
Mn	      8.16645      8.46679      8.31903         0.016128     -0.003816     -0.104315
V	      4.27563      6.42084      6.26554         0.269370      0.055335     -0.200670
Cr	      4.11080      8.50937      4.16338         0.096026     -0.149221      0.122138
Co	      4.10253      8.59836      8.30149        -0.017346      0.177647     -0.113601
Co	      4.10394      4.25093      4.17284         0.003674      0.125875      0.098547
Co	      4.11119      2.12931      6.26449         0.068720      0.018171     -0.042936
O	      2.12212      2.11093      2.06016        -0.001672     -0.089194      0.001973
O	      4.07398      4.23483      2.11316         0.067704     -0.063482     -0.008433
O	      4.09879      2.22766      4.30611        -0.065078     -0.005558      0.056446
O	      6.25567      4.29446      4.14012        -0.057955      0.025766     -0.006176
O	      5.98631      2.13665      6.26371         0.007742      0.029070     -0.019439
O	      8.15484      4.47111      6.16875        -0.011985     -0.080679     -0.019646
O	      1.99517      4.48227      4.15362         0.014433      0.028888     -0.033516
O	      4.10906      6.42721      4.29070        -0.009883     -0.067289     -0.040101
O	      4.10680      4.25302      6.37850        -0.011666     -0.010644     -0.032965
O	      6.07798      6.39102      6.26242        -0.132812      0.003888      0.051877
O	      5.98776      4.23737      8.46835        -0.036701     -0.012304     -0.005960
O	      8.14213      6.55493      8.26982         0.029553      0.077931      0.078358
O	      2.27874      6.38744      6.25931        -0.062771      0.007488     -0.016855
O	      4.15043      8.34918      6.21005        -0.061453      0.049114      0.141595
O	      4.12314      6.26142      8.36667         0.003900     -0.012164      0.145564
O	      6.20564      8.57648      8.35094         0.048495      0.008942      0.018651
O	      6.05233      6.24257     10.51163        -0.051575     -0.027067     -0.025547
O	      8.21144      8.36544     10.32855        -0.042731     -0.020050      0.052448
