# total energy = -223.33407944 eV
 
CRYSTAL
PRIMVEC
0.014713 6.105771 6.410148 
6.365215 -0.015374 6.441698 
4.231652 4.078528 0.002470 
PRIMCOORD
36 1
Li	      2.27183      6.09460      8.51847         0.000728     -0.013064     -0.018864
Li	      4.29812      8.06060      8.46652         0.001869      0.062062     -0.003828
Li	      4.13104      4.09955      4.37830        -0.022958     -0.017156      0.038439
Li	      6.27496      4.12106      6.52540         0.042351     -0.024433      0.029599
Li	      0.14531      4.01788      4.25699         0.011380     -0.025947      0.057920
Li	      2.16048      5.99411      4.37373         0.016438     -0.020512      0.056714
Li	      2.14900      4.06288      6.35237         0.004277     -0.000436     -0.047603
Li	      4.33630      4.14356      8.49697         0.023622     -0.014714     -0.018523
Li	      6.25746      5.98312      8.54380         0.042355      0.009268     -0.016758
Sc	      2.14304      2.05454      0.04418        -0.043315      0.075345      0.032332
Mn	      4.17341      6.13524      2.25694        -0.023790     -0.044687      0.071528
Mn	      6.30003      6.10443      4.33069         0.021666     -0.014616     -0.039635
Mn	      4.25140      2.11109      6.42877         0.031723      0.096334     -0.065726
V	      6.41046      8.21417     10.50419         0.022873     -0.010424      0.130888
Cr	      0.03594      6.10341      6.39011         0.061132      0.017793     -0.051664
Cu	      8.43539      4.09994      8.67062        -0.002737      0.053753      0.098201
Ni	      4.30612      6.12042     10.54906        -0.004216     -0.021256     -0.058398
Ni	      4.19093      6.04687      6.48530         0.102802      0.013240     -0.091622
O	      1.96695      2.03486      2.18388        -0.018816     -0.143209      0.036199
O	      4.08766      4.18633      2.00087         0.059813     -0.000026      0.016656
O	      4.41993      2.06872      4.42835         0.047133      0.107101     -0.032274
O	      6.40647      4.00982      4.26654        -0.042383      0.043379     -0.040534
O	      6.29430      2.02121      6.33499         0.042130      0.021368      0.041580
O	      8.60048      4.16165      6.25686        -0.020884      0.022311     -0.097484
O	      2.13565      3.88082      4.35635        -0.010782     -0.040059      0.126841
O	      4.23763      6.06001      4.39910        -0.085631     -0.009207     -0.083549
O	      4.26938      3.97538      6.47254        -0.040526     -0.086857      0.022550
O	      6.57844      6.07165      6.33293        -0.097239      0.020592      0.089035
O	      6.45125      3.95250      8.62393        -0.115516      0.005291      0.037758
O	      8.55887      6.09856      8.36660        -0.012136      0.066085     -0.064494
O	      2.05543      6.12696      6.43630        -0.091125     -0.055855      0.054389
O	      4.17009      8.19079      6.42730        -0.007568      0.008817     -0.007931
O	      4.27565      6.10426      8.50649         0.024421      0.007926      0.007104
O	      6.31458      8.13758      8.80468         0.000353      0.004625     -0.203935
O	      6.37992      6.27924     10.77758         0.083895     -0.004546     -0.002724
O	      8.25443      8.15884     10.76071        -0.001338     -0.088284     -0.002186
