# total energy = -223.31944828 eV
 
CRYSTAL
PRIMVEC
0.008500 6.192739 6.364665 
6.272681 -0.006021 6.379533 
4.175438 4.131760 0.002492 
PRIMCOORD
36 1
Li	      4.19728      4.11618      0.12207        -0.011059     -0.000500     -0.005437
Li	      4.18588      2.11411      2.15109        -0.031417      0.031700      0.035855
Li	      4.18503      6.11166      2.17239        -0.025420     -0.067494     -0.022648
Li	      2.18669      4.13297      2.15489         0.088620      0.001928      0.027067
Li	      4.20354      4.10096      4.13328        -0.044145      0.044804     -0.094470
Li	      6.26555      4.16518      6.39244         0.008380      0.003540     -0.031764
Li	      6.18188      8.30174      6.36832        -0.054203     -0.013041     -0.021655
Li	      4.16866      6.20748      6.40736         0.040617     -0.008151     -0.048329
Li	      4.21904      4.17069      8.47832        -0.013499     -0.066601      0.028309
Sc	      2.12132      2.12368      0.11583        -0.010483      0.016483     -0.009154
Mn	      6.21969      2.05764      4.24686         0.104834     -0.039488      0.131610
Mn	      6.30839      4.12672     10.59433        -0.007448      0.024102      0.276849
Mn	      2.17511      6.11365      4.31096         0.017544      0.004991     -0.016269
V	      8.26819      6.34307      6.44591         0.084752     -0.216400      0.166715
Cr	      6.19937      4.09063      2.11679        -0.036859      0.045679      0.026681
Cu	      4.13739      0.03120      4.24080         0.023079     -0.099887      0.058731
Cu	      6.12847      6.18140      8.46307        -0.023933      0.055320     -0.068609
Ni	      2.09062      2.06071      4.18662        -0.099820      0.020286     -0.047224
O	      4.13409      6.18898      8.65215         0.095729      0.022025     -0.020071
O	      2.07998      2.00344      2.14064         0.010351      0.002663     -0.150269
O	      4.27519      4.10742      2.11503        -0.114770     -0.045277     -0.036152
O	      4.18826      2.07352      4.40086        -0.037745      0.046706      0.014848
O	      6.22072      4.09273      4.14481        -0.088643     -0.017179     -0.008167
O	      6.18130      2.09539      6.19192        -0.027912      0.024218     -0.017376
O	      8.35288      4.20823      6.22829        -0.024594      0.019431      0.034626
O	      2.02436      4.17329      4.21966        -0.076899     -0.039792     -0.018626
O	      4.12610      6.27376      4.20385         0.082672      0.123129     -0.006077
O	      4.19221      3.95252      6.38221         0.027147      0.278461     -0.004163
O	      6.44645      6.19572      6.24262        -0.021448     -0.007693     -0.014867
O	      6.24231      4.24478      8.67876        -0.005831     -0.007365     -0.127402
O	      8.38209      6.13658      8.22538         0.029060      0.024402     -0.102783
O	      2.14717      6.20301      6.47774         0.040035      0.028523      0.064351
O	      4.15647      8.25083      6.16592        -0.012184     -0.027949     -0.067946
O	      6.25405      8.21241      8.68209        -0.014373     -0.064376     -0.047453
O	      6.49465      6.16969     10.67685         0.010945     -0.104168      0.128522
O	      8.39562      8.10031     10.65850         0.118925      0.006969     -0.007251
