# total energy = -93.05220547 eV
 
CRYSTAL
PRIMVEC
-2.096570 4.172962 -2.093678 
2.070048 4.146263 2.067000 
2.122938 0.013317 -6.280687 
PRIMCOORD
16 1
Li	      0.08717      4.21454     -4.32474         0.145687     -0.005761      0.060801
Li	      2.07431      6.30932     -4.21416        -0.034728     -0.125666      0.050664
Li	      2.03972      4.21394     -6.26185        -0.079816      0.007966      0.177706
Li	      2.12751      2.10860     -4.23057        -0.003152      0.128927     -0.003938
Mn	      0.00665      0.04392     -0.00508        -0.849499     -0.021974      0.358283
Mn	     -0.00208      6.30982     -2.14084         0.295512     -0.468414      0.041666
Ni	      0.01555      2.11024     -2.13134         0.128573      0.165423      0.031223
Ni	      2.13984      4.20424     -2.16409        -0.076836      0.019184     -0.384905
O	      0.00668      4.22519     -6.49773         0.195170     -0.014726      0.254582
O	      1.95309      6.27380     -2.09838        -0.445378     -0.176695      0.054510
O	      2.27579      4.20849     -4.23423         0.282965      0.016490      0.073902
O	      2.07812      4.09215      0.05274        -0.031067     -0.059887     -0.320820
O	      2.07101      2.13289     -1.98315        -0.206484      0.231976      0.319487
O	      0.02153      6.43110     -0.13508         0.157625     -0.162295     -0.476448
O	     -0.08151      4.31333     -2.10431         0.184447      0.238214      0.071552
O	      0.11128      1.97537     -0.04699         0.336979      0.227237     -0.308264
