# total energy = -229.20477531 eV
 
CRYSTAL
PRIMVEC
-0.014816 6.409176 6.096038 
6.325550 -0.009557 6.092358 
4.215605 4.268315 -0.005388 
PRIMCOORD
36 1
Li	      8.41095      2.20567      6.04542         0.020881      0.035208      0.003690
Li	      8.33526      4.15641      4.10342         0.041175     -0.077347     -0.047147
Li	      6.38384      2.27340      4.08200        -0.001277      0.029693     -0.028380
Li	      8.34270      4.32450      8.03351        -0.005361      0.040168     -0.003895
Li	      4.26584      2.11525      6.10981         0.003219      0.022455     -0.000587
Li	      6.42779      4.16880      6.03052         0.015217      0.007086      0.015275
Li	      2.16510      4.35225      6.12399         0.000016     -0.034181      0.060083
Li	      4.10791      6.32924      6.16288         0.002999     -0.076409      0.032810
Li	      4.23507      4.28030      8.08930        -0.001336     -0.039635      0.008533
Sc	     10.39766      4.27285      6.08036        -0.125875      0.004577     -0.039515
Mn	      4.17685      8.44798      8.08666         0.085799     -0.070436     -0.043046
Mn	      6.31702      2.24192      8.05262        -0.053187      0.125827      0.037480
Mn	      4.21395      4.26129      4.12768        -0.023306      0.023962      0.034160
V	      6.28889      6.38430      7.96982        -0.116941     -0.061379      0.250330
Cr	      2.10890      6.45125      4.10184        -0.173102     -0.161117     -0.111843
Fe	      2.16153      2.15021      4.12721        -0.065494      0.085627     -0.011215
Co	      4.20177      8.52907      4.09116        -0.102752      0.035196      0.000695
Cu	      2.18042      6.39046      8.07326        -0.057608     -0.041864     -0.037122
O	      2.20919      2.16194      2.11023        -0.003784      0.214023     -0.003194
O	      4.19495      4.46234      2.11485        -0.017638      0.037718      0.018302
O	      4.12084      2.17597      3.95564         0.103025      0.057899      0.022692
O	      6.24824      4.37667      3.94732        -0.004723     -0.034245      0.063884
O	      6.32605      2.11991      6.18432         0.020291      0.006913     -0.068608
O	      8.44987      4.27553      6.04261         0.067684      0.009833      0.021150
O	      2.05037      4.24515      4.10386         0.054782      0.075611      0.035933
O	      4.20852      6.55026      3.97466         0.029171     -0.002773      0.021703
O	      4.23609      4.26927      5.93891         0.003698      0.004533     -0.039491
O	      6.34675      6.34784      6.17865         0.032886     -0.025417     -0.336098
O	      6.33153      4.26770      8.25159         0.005854     -0.086098     -0.039651
O	      8.30817      6.42827      8.20719         0.040877     -0.022204     -0.065778
O	      2.05634      6.35565      6.11958         0.142013      0.096175      0.044462
O	      4.18960      8.56571      6.11438         0.043137      0.032650      0.010304
O	      4.33611      6.32493      8.15118         0.060449     -0.099516      0.026808
O	      6.14491      8.31833      8.17479        -0.054781     -0.045936      0.009916
O	      6.42446      6.22413     10.07175         0.015168     -0.088818      0.123275
O	      8.58761      8.39684     10.16556         0.018822      0.022220      0.034083
