# total energy = -230.57990033 eV
 
CRYSTAL
PRIMVEC
-0.001179 6.260817 6.269414 
6.382066 -0.014611 6.282688 
4.257778 4.186169 -0.012987 
PRIMCOORD
36 1
Li	     10.53231      4.25498      6.36941         0.001010     -0.001610      0.038336
Li	      4.19854      2.12389      2.10983         0.006551      0.012890      0.018496
Li	      6.38484      2.15873      8.30712         0.001257     -0.027378      0.018059
Li	      8.35614      4.17458      8.31226        -0.046728     -0.024510      0.027196
Li	      6.29180      6.34045      4.20822        -0.063761     -0.022640     -0.016599
Li	      8.50610      6.12269      6.38131        -0.001556     -0.027081     -0.025801
Li	      6.44016      4.24346      6.41825         0.027057      0.024657     -0.066971
Li	      6.42326      4.08873     10.33153        -0.002189     -0.042689      0.008501
Li	      6.37809      6.14796      8.27741        -0.034688      0.043922      0.007693
Sc	      8.44470      6.19369     10.34143        -0.031574     -0.043112     -0.030345
Mn	      6.38506      2.09543      4.17356        -0.046044     -0.013240      0.034228
Mn	      4.27668      4.14383      4.20385         0.007106     -0.040536      0.028673
Mn	      6.28082      8.28304      6.27178        -0.022041     -0.001326     -0.012733
V	      8.50505      2.21186      6.38817         0.088600      0.070315     -0.019255
Cr	      4.36483      4.15809      8.29065        -0.061689      0.021963     -0.054126
Fe	      2.10447      0.06149      2.11183         0.123569     -0.119010     -0.017352
Co	      4.24160      6.23811      6.26107         0.035868      0.027551      0.022989
Ni	      4.31666      0.05839      4.19583         0.042157      0.018825     -0.024854
O	      2.17946      2.06081      2.01035        -0.022960     -0.009377     -0.023588
O	      4.39985      4.16958      2.24928        -0.036252      0.008936      0.006457
O	      4.43199      2.16809      4.25810         0.040807      0.116756     -0.014520
O	      6.51872      4.08296      4.09215        -0.082380     -0.074584      0.101302
O	      6.69960      2.01397      6.27899         0.021636      0.035895      0.010331
O	      8.57059      4.08861      6.25592         0.004839     -0.052442      0.086152
O	      2.06282      4.16779      4.31258        -0.019147      0.013706      0.019052
O	      4.20149      6.10175      4.32122        -0.017815      0.036357     -0.030178
O	      4.32244      4.28262      6.24738        -0.060860      0.024203     -0.005862
O	      6.16698      6.37165      6.25810        -0.068803      0.039249     -0.025711
O	      6.29316      4.17278      8.38672        -0.014363     -0.014067      0.032700
O	      8.54865      6.33080      8.34928        -0.034165     -0.012334      0.008903
O	      2.21927      6.18148      6.29508         0.040717      0.011297     -0.032562
O	      4.02893      8.17970      6.19162        -0.003634      0.032343      0.004757
O	      4.18497      6.20375      8.25846         0.012169      0.001013     -0.038118
O	      6.49020      8.40956      8.21502        -0.003742      0.011048     -0.057742
O	      6.35935      6.41704     10.44125         0.154398      0.070042      0.005466
O	      8.40723      8.36105     10.37540         0.066649     -0.095029      0.017025
