# total energy = -231.64812921 eV
 
CRYSTAL
PRIMVEC
0.001950 6.365832 6.164787 
6.356265 -0.010472 6.175178 
4.240296 4.255093 -0.010320 
PRIMCOORD
36 1
Li	      8.40677      4.24320      4.11520         0.010152     -0.022380     -0.052725
Li	      2.07921      4.23888      2.15763         0.013250     -0.012853      0.053286
Li	      2.20191      2.18728      4.20251        -0.028059     -0.011594      0.022920
Li	      4.18167      4.18348      4.14291         0.016039      0.046913      0.000741
Li	      4.18037      2.18185      6.13213         0.059144      0.024195     -0.018225
Li	      6.41160      4.28672      6.09331        -0.051309      0.020308     -0.017075
Li	      0.06037      4.21583      4.08732        -0.002993     -0.028794      0.022766
Li	      2.12696      6.30595      4.07921         0.059853      0.016371      0.005107
Li	      4.26146      4.19838      8.15735         0.016346      0.006538      0.027344
Sc	     10.49115      4.23921      6.07821        -0.018300      0.082518      0.040423
Mn	      2.15383      0.04994      2.11599         0.058816     -0.026660     -0.034606
Mn	      4.23054      2.14409      2.11132         0.021007     -0.065799      0.019612
Mn	      2.22040      4.18543      6.10996         0.021903      0.025957     -0.050064
V	     10.48529      6.52364      8.32868        -0.042576     -0.096850     -0.032355
Cr	      6.38319      2.14950      4.11872        -0.116537     -0.003722     -0.083782
Fe	      6.52304      6.20254      8.22055        -0.060096      0.035437      0.032057
Co	      8.42128      2.18862      6.15665        -0.071161     -0.131834     -0.210112
Co	      4.28887      6.30289      6.08559        -0.027424     -0.013244      0.041222
O	      1.96324      2.19630      1.94299         0.048716      0.032373     -0.112145
O	      4.34970      4.24065      2.02347         0.004653     -0.098779     -0.031175
O	      4.33932      2.12920      3.98326         0.019963     -0.028336      0.025442
O	      6.38060      4.13381      3.98019         0.014255      0.029579      0.083839
O	      6.23446      2.08364      6.21912         0.094192     -0.039393     -0.091503
O	      8.49279      4.08155      6.15799         0.002190     -0.089618      0.007548
O	      2.10093      4.23726      4.25947         0.004224      0.026036     -0.013153
O	      4.24980      6.39577      3.90382         0.028370     -0.026266      0.096999
O	      4.10439      4.30548      6.13096         0.159895      0.501621      0.056270
O	      6.37901      6.29640      6.27530        -0.469767     -0.025914     -0.196160
O	      6.28524      4.19283      8.25498         0.026193      0.130443     -0.027223
O	      8.52788      6.32180      8.21941         0.011722     -0.011675     -0.008848
O	      2.12652      6.53267      6.27746         0.354366      0.068465     -0.021045
O	      4.40571      8.50637      6.26698        -0.097558     -0.308957     -0.038614
O	      4.17853      6.51926      8.19792        -0.090008      0.041566      0.154023
O	      6.43420      8.39866      8.21625        -0.002973     -0.037234     -0.003979
O	      6.37973      6.44855     10.20483        -0.033692     -0.027285      0.082766
O	      8.36692      8.46040     10.44708         0.067201      0.018870      0.270424
