# total energy = -227.71867019 eV
 
CRYSTAL
PRIMVEC
0.005441 6.522330 6.237417 
6.140557 0.005938 6.236941 
4.090199 4.344069 0.007489 
PRIMCOORD
36 1
Li	     10.16465      4.37441      6.26980        -0.034650     -0.016598     -0.040315
Li	      8.10538      2.27306      6.21872         0.003707      0.023745     -0.052330
Li	      8.20431      4.34227      4.22724         0.025175     -0.010161      0.011864
Li	      6.14562      2.19185      4.24390         0.034326      0.003358      0.016186
Li	      6.09036      2.15434      8.18871        -0.016252     -0.001100      0.019983
Li	      8.22473      4.45263      8.13613         0.064124     -0.071920      0.046996
Li	      4.09156      4.29812      4.11327        -0.015821      0.010604     -0.038455
Li	      8.25460      6.43425      6.29997         0.025617     -0.050162     -0.040408
Li	      4.06877      6.54033      6.31464         0.009275      0.028101     -0.030866
Sc	      6.06220      6.53770      4.20875        -0.000986     -0.017420     -0.014161
Mn	      6.18048      4.20784      6.22172         0.139439     -0.138149     -0.099917
Mn	      2.08056      6.53929      4.15799         0.029319      0.033971     -0.023552
Mn	      6.14250      6.45791      8.32610         0.001377     -0.022269     -0.018996
V	      4.06340      2.24587      2.07699        -0.054818     -0.019445      0.230401
Cr	      6.14272      4.35464      2.10911         0.041071      0.065007     -0.004151
Fe	      2.15332      4.43527      6.25735         0.019593     -0.066976      0.054947
Cu	      8.23621      8.58974      8.33639        -0.089077      0.051452      0.077062
Ni	      4.06957      8.69662      4.23972        -0.010539     -0.006076     -0.029614
O	      2.10467      2.04056      2.09486         0.051453     -0.055251      0.038519
O	      4.15547      4.21875      2.05617         0.074736     -0.000972      0.002478
O	      4.05521      2.23547      3.95033        -0.010609      0.011798     -0.144835
O	      6.09059      4.45075      4.21777         0.018093      0.019557      0.055604
O	      6.11956      2.36588      6.19813         0.005249      0.179429      0.008891
O	      8.03628      4.32193      6.18000        -0.185500      0.007297      0.040976
O	      2.03380      4.36726      4.29128         0.126702     -0.143711     -0.010575
O	      4.00292      6.60574      4.14135        -0.028501     -0.108261      0.058909
O	      4.13781      4.35203      6.33835         0.136345     -0.017982     -0.093253
O	      6.13160      6.52596      6.31180         0.033315     -0.002979      0.031334
O	      6.13031      4.29987      8.16013         0.039735     -0.043929     -0.044476
O	      8.04875      6.39303      8.31575        -0.089431     -0.094218      0.083575
O	      2.07894      6.41992      6.32626        -0.014385      0.023201      0.004611
O	      4.19112      8.69962      6.39066        -0.078994     -0.011058     -0.019307
O	      4.14850      6.73510      8.37173         0.028676      0.158750     -0.052611
O	      6.14637      8.82480      8.31429        -0.071600      0.113392     -0.041835
O	      6.26703      6.44499     10.30736         0.027271      0.076246     -0.004017
O	      8.24142      8.57340     10.30396        -0.233438      0.092732      0.021337
