# total energy = -227.97954820 eV
 
CRYSTAL
PRIMVEC
0.009854 6.362249 6.247317 
6.357843 -0.017091 6.275920 
4.234210 4.255189 -0.008960 
PRIMCOORD
36 1
Li	      0.08157      6.37332      6.28048        -0.012699      0.032045      0.026676
Li	      6.46300     10.35427      8.37627         0.050910      0.039064      0.028331
Li	      4.43114      8.44453      8.41021        -0.046281      0.004549      0.056640
Li	      4.19889      6.35417     10.26271         0.016953      0.020847      0.025905
Li	      6.38637      8.51782     10.29102        -0.015688      0.014251      0.140090
Li	      4.25158      2.11167      6.25849         0.040761      0.016608     -0.054791
Li	      8.42368      6.40583     10.41330        -0.017358      0.013332      0.014682
Li	      6.31058      8.57515      6.46250        -0.029260      0.086854     -0.062049
Li	      8.26400      8.54254      8.47779         0.085790      0.001573      0.038169
Sc	      4.19786      6.35396      6.37941        -0.089078     -0.035764      0.013863
Mn	      8.47627      4.27100      8.33777         0.047447     -0.053664     -0.001710
Mn	      2.17503      2.08201      4.14823         0.106124      0.033100     -0.067314
Mn	      4.25509      4.20482      4.15155         0.005423     -0.055747      0.014447
V	      6.32441      4.44580     10.44670        -0.099362      0.264555      0.010810
Cr	      6.37541      4.20443      6.23414        -0.018287     -0.106401     -0.036325
Fe	      2.06534      8.40690      6.22664         0.061068      0.086720      0.010231
Ni	     10.54183      6.34899      8.31509        -0.025183      0.000478     -0.018223
Ni	      6.37978      6.50067      8.30423         0.032491     -0.128792      0.048541
O	      6.37786      8.45776      8.35491         0.000598      0.060386      0.036712
O	      2.06814      2.30662      2.06877         0.067628      0.053339      0.011880
O	      4.04531      4.29422      2.19791        -0.077278     -0.079371     -0.066199
O	      4.06446      2.25818      4.16717        -0.044391      0.057635     -0.016587
O	      6.40226      4.24778      4.25001         0.036109     -0.077048     -0.029914
O	      6.42598      2.18494      6.27245        -0.054945      0.019835     -0.085278
O	      8.40461      4.14200      6.41750        -0.004891      0.064675      0.044084
O	      1.98035      4.25117      4.02964        -0.034475      0.015862     -0.077541
O	      4.41001      6.32750      4.12821        -0.037974     -0.093661      0.081010
O	      4.34002      4.24935      6.08942         0.019662      0.022338      0.056900
O	      6.34774      6.23599      6.20283         0.027469      0.039298     -0.030637
O	      6.48916      4.22270      8.36679        -0.032704      0.044522     -0.082513
O	      8.47363      6.17561      8.33735        -0.040575     -0.057572     -0.004066
O	      2.13356      6.45842      6.29577         0.088771     -0.125902      0.010312
O	      4.19266      8.46622      6.08246         0.025222     -0.017889      0.055725
O	      4.32529      6.34843      8.33046        -0.091233     -0.043738     -0.043980
O	      6.35930      6.20659     10.42482         0.028935     -0.110486      0.035270
O	      8.66246      8.41697     10.48635         0.030302     -0.005829     -0.083151
