# total energy = -231.77787970 eV
 
CRYSTAL
PRIMVEC
-0.002826 6.169474 6.728162 
6.029208 0.009879 6.713367 
4.037125 4.119668 -0.010218 
PRIMCOORD
36 1
Li	      4.04543     10.26586      6.74818        -0.017210     -0.068422      0.026277
Li	      4.06501      8.26489      8.95450         0.047488     -0.016818     -0.003459
Li	      6.01891      8.23872     11.17590        -0.049098      0.047432      0.037746
Li	      4.03217      6.16276      2.23643        -0.011476     -0.013826     -0.023979
Li	      4.07536      4.07791      4.40664        -0.051076     -0.019554     -0.071248
Li	      4.04703      2.17137      6.60804         0.026329      0.001340      0.013892
Li	      6.01953      4.15572      6.80224         0.065904     -0.074623     -0.066304
Li	      6.05586      4.11300     11.10032         0.005655     -0.022868     -0.008136
Li	      6.03922      6.16796      8.92765        -0.004390      0.057542      0.055693
Sc	      4.10429      0.05971      4.54526         0.110573     -0.025489      0.051775
Mn	      5.96288      4.11561      2.33348         0.036909     -0.071999     -0.053582
Mn	      1.98417      2.12161      4.51995        -0.027845      0.008859      0.052862
Mn	      4.04777      6.15211      6.70424        -0.103551      0.158292     -0.003383
V	      7.92449      2.06489      6.67597         0.087557      0.110851      0.026648
Cr	      8.05798      4.13290      8.85054        -0.044447     -0.030729      0.055513
Fe	      8.03484      6.12026     11.11742        -0.000359      0.026385      0.097242
Fe	      4.08672      4.07091      8.93042        -0.076981      0.015993      0.130710
Cu	      5.96453      8.23917      6.83728        -0.035619     -0.044461     -0.070599
O	      2.01106      2.01518      1.98017        -0.015273      0.156910      0.105937
O	      4.06650      4.11141      2.10057        -0.019772      0.000403      0.089121
O	      3.91381      2.08429      4.55878         0.038015      0.044523      0.078953
O	      6.04561      4.30048      4.50977        -0.091806     -0.040748     -0.024277
O	      6.18227      2.05026      6.62841        -0.202231     -0.035928      0.054472
O	      8.08118      4.01988      6.75338        -0.047747      0.026636      0.039680
O	      2.02741      4.07571      4.14383        -0.000118     -0.058947      0.001894
O	      4.04895      6.15746      4.50173         0.061675     -0.006801     -0.045779
O	      3.94110      4.18872      6.94267         0.102487      0.074581     -0.228673
O	      5.94432      6.28883      6.75612         0.079500     -0.245783      0.038745
O	      6.02071      4.12441      8.88568         0.130266     -0.007790      0.021722
O	      8.05215      6.18665      9.08070         0.017767     -0.124218     -0.083979
O	      2.08166      6.13198      6.57213         0.113630      0.171590     -0.000953
O	      3.95703      8.08741      6.74485        -0.017061     -0.107055     -0.034633
O	      3.92296      6.10760      9.12338        -0.036762      0.070944     -0.034911
O	      6.09776      8.36877      9.13665        -0.013270     -0.088304      0.003272
O	      6.10934      6.15238     11.25403        -0.026134      0.050333     -0.073480
O	      8.08377      8.18562     11.33473        -0.031528      0.081750     -0.154777
