# total energy = -231.72840059 eV
 
CRYSTAL
PRIMVEC
0.007104 6.305447 6.221514 
6.407743 0.004407 6.224611 
4.267122 4.200960 0.008023 
PRIMCOORD
36 1
Li	      4.27682      4.22581      0.06708         0.026582      0.002271      0.029256
Li	      8.51631      2.10932      6.23801         0.019338     -0.016566      0.011966
Li	      4.32046      8.42297      8.21166        -0.004376      0.036386     -0.035467
Li	      6.33819      2.11214      8.14094        -0.023683     -0.071610      0.072050
Li	      4.41188      2.11633      6.30124         0.039337      0.006762      0.014835
Li	      6.39681      4.08356      6.34926        -0.020364      0.004015      0.043793
Li	      8.52414      6.33536     10.38959        -0.052786     -0.005165     -0.019623
Li	      2.10651      4.29177      6.26817        -0.048710      0.018057     -0.039561
Li	      4.31542      4.15105      8.24298        -0.014676     -0.028751     -0.044466
Sc	      6.52150      2.09676      4.30055         0.041752     -0.023476      0.105902
Mn	      8.54082      4.20630      8.17883         0.001728     -0.013079     -0.016521
Mn	      4.24415      4.20970      4.17519         0.066056      0.013918      0.066825
Mn	     10.59411      8.41612     10.36697        -0.025564      0.010605      0.045225
V	      6.45659      6.29738      4.21815        -0.042463     -0.038350     -0.027075
Cr	      2.14313      6.28065      8.25776        -0.016681      0.055692     -0.076381
Fe	      4.15978      6.30576      6.25206         0.081452     -0.016509     -0.153002
Fe	      6.45198      6.36805      8.24890        -0.088990     -0.002520     -0.103569
Ni	      8.58546      4.21192      4.25230         0.000154      0.057437      0.050475
O	      2.15538      2.06316      2.28310         0.026931      0.059088     -0.135480
O	      4.38139      4.17066      2.21982        -0.027238     -0.004355     -0.040650
O	      4.18298      2.18008      4.22119         0.001612      0.134232     -0.002457
O	      6.52805      4.27604      4.09518        -0.140258     -0.106287     -0.046062
O	      6.40964      2.11829      6.22397         0.031487     -0.010422     -0.073019
O	      8.56546      4.17360      6.32150         0.013274      0.004214      0.151900
O	      2.02828      4.08123      3.99063        -0.035593     -0.009917     -0.030304
O	      4.38101      6.19606      4.16892         0.039462     -0.011167     -0.029991
O	      4.24990      4.30724      6.07887        -0.018505     -0.062931      0.027695
O	      6.33077      6.31340      6.07803        -0.056560     -0.009471      0.244848
O	      6.34905      4.32440      8.39617         0.021070     -0.064708     -0.054622
O	      8.39934      6.20697      8.28257         0.094417     -0.080991     -0.004615
O	      2.19427      6.29926      6.29242        -0.087573      0.022443      0.072719
O	      4.29124      8.29348      6.04475        -0.005085      0.067533      0.011955
O	      4.25126      6.34413      8.24678         0.060735      0.020263      0.035613
O	      6.40154      8.39975      8.31514         0.023207      0.111172      0.007723
O	      6.34773      6.36287     10.29444         0.147360      0.040001     -0.018004
O	      8.59893      8.44593     10.38524        -0.026847     -0.087817     -0.041913
