# total energy = -223.59489963 eV
 
CRYSTAL
PRIMVEC
0.002183 6.460220 6.197319 
6.208580 0.017683 6.182515 
4.144647 4.302641 0.006067 
PRIMCOORD
36 1
Li	      6.11095      0.11322      6.17692         0.066740      0.073782      0.017644
Li	      8.18960      2.35778      6.15287         0.042262      0.064410      0.004281
Li	      6.13465      2.22691      4.32518         0.026825      0.029362     -0.034139
Li	      4.18254      4.27431      4.21585         0.031251      0.008949     -0.035500
Li	      4.18838      2.16484      6.02509        -0.021337     -0.000830      0.004857
Li	      6.24505      4.22170      6.15307        -0.023804     -0.005755      0.004431
Li	      0.01696      4.30603      4.13469        -0.048205      0.034874      0.023170
Li	      4.15902      4.40226      8.15528         0.049176     -0.009539      0.021482
Li	      6.24210      6.36550      8.18737         0.028978     -0.049559     -0.007498
Sc	      6.19846      2.25404      8.13734        -0.030713      0.028860      0.031225
Mn	      6.20403      4.26226      2.11781        -0.084431     -0.063268     -0.049670
Mn	      4.20064      8.57728      8.25292        -0.005249     -0.005547     -0.133316
Mn	      2.12063      4.23822      6.15459        -0.025616      0.027368      0.079470
V	      8.17514      6.64897     10.35076        -0.134875      0.046805      0.058092
Cr	      8.26463      4.34297      8.20801         0.078840      0.055995     -0.055965
Ni	      8.30588      4.35916      4.21709         0.190924     -0.091717     -0.012409
Ni	      2.09650      2.15710      4.14814        -0.007582      0.002317      0.012743
Ni	      4.18344      6.40007      6.19332        -0.019844     -0.043812      0.064217
O	      2.12057      2.27949      2.07355         0.095600      0.022634     -0.061442
O	      4.21966      4.33560      2.07791        -0.078554      0.082974      0.008219
O	      4.16271      2.09169      3.97109         0.063648      0.089867      0.016118
O	      6.25526      4.38334      4.03840        -0.096455     -0.041927     -0.033293
O	      6.18267      2.18838      6.21664         0.019429     -0.003853     -0.056832
O	      8.30213      4.33027      6.23023        -0.024045      0.066960      0.184312
O	      2.04796      4.35180      4.18216         0.025633     -0.056525     -0.020514
O	      3.94749      6.46300      4.15894         0.082806      0.003935     -0.033597
O	      3.99804      4.33017      6.18585        -0.047917     -0.075251     -0.010271
O	      6.21386      6.64201      6.14293         0.132645      0.046062      0.094469
O	      6.30251      4.30889      8.24966        -0.018345     -0.011682      0.051373
O	      8.26759      6.36744      8.47913        -0.004953     -0.070645     -0.081590
O	      2.09344      6.27953      6.14125        -0.119939     -0.105774      0.057357
O	      4.27646      8.51697      6.31817        -0.035079      0.010653     -0.067791
O	      3.98551      6.43291      8.30862         0.074539     -0.111902     -0.020516
O	      6.19373      8.58063      8.09184        -0.074494      0.047920     -0.030025
O	      6.39000      6.45232     10.36354        -0.052966     -0.029199      0.000956
O	      8.27037      8.40106     10.36522        -0.054894      0.033059      0.009953
