# total energy = -239.31051631 eV
 
CRYSTAL
PRIMVEC
-0.011706 6.404095 6.256336 
6.246897 -0.016186 6.260928 
4.160305 4.269061 -0.006376 
PRIMCOORD
36 1
Li	      0.12488      6.35213      6.22825        -0.027058      0.011625     -0.029421
Li	      2.03818      6.39582      8.19588         0.015972     -0.005589      0.023805
Li	      6.30176      8.49064     10.41953        -0.008177     -0.036794     -0.052304
Li	      0.07179      2.14930      2.05748         0.016185      0.010106      0.062658
Li	      6.24401      4.20118      6.26512        -0.001053      0.004280      0.020815
Li	      4.11307      8.60532      4.27391        -0.018867      0.048320     -0.009574
Li	      2.02603      6.44311      4.29228         0.008121      0.024713     -0.072518
Li	      1.99854      4.47696      6.22923         0.011495      0.042967     -0.018677
Li	      3.99213      6.46105      6.26724         0.004433      0.026878     -0.016596
Sc	      4.33230      2.10845      6.26084        -0.025472      0.038874      0.042105
Mn	      8.26495     10.60003     10.41411         0.036242     -0.040244     -0.091045
V	      8.28036      4.23655      8.36465        -0.175781      0.148214      0.036384
V	      4.19230      4.42351      4.19493        -0.002251      0.157674      0.180230
V	      6.21200      6.40790      8.26405        -0.108005      0.036783      0.019237
Cr	      2.04898      8.46449      6.24089         0.040008     -0.093068     -0.083865
Cr	      4.17428      8.53441      8.28342         0.274920     -0.287719     -0.052761
Co	      6.22299      6.39918      4.25772        -0.083594      0.015818      0.010614
Co	      4.15363      4.27087      8.33723        -0.029834      0.006881     -0.001560
O	      2.15189      2.18456      2.04858        -0.029526     -0.062069      0.027825
O	      4.09069      4.13415      2.22644         0.051243      0.043345     -0.013374
O	      4.18683      2.11781      4.13449        -0.074642      0.004939      0.005975
O	      6.27371      4.31819      4.15803         0.007166     -0.058467      0.009074
O	      6.29471      2.09788      6.30390         0.019267      0.012466      0.021821
O	      8.34000      4.21682      6.34818         0.013942     -0.005111     -0.071147
O	      2.21115      4.19514      4.11972         0.063430     -0.006950      0.097845
O	      4.17059      6.20104      4.13790         0.087531     -0.123287     -0.016823
O	      4.18081      4.17841      6.14615         0.033027     -0.060493     -0.020438
O	      6.29065      6.34577      6.40242         0.002183     -0.038727      0.006210
O	      6.26430      4.36735      8.38037        -0.022105     -0.094109      0.024054
O	      8.21649      6.37454      8.36393         0.059770      0.102770     -0.005730
O	      2.04578      6.51157      6.22432        -0.061923      0.053210      0.013480
O	      4.07180      8.54230      6.32072        -0.029580      0.048480      0.023134
O	      4.21227      6.45568      8.29416        -0.013231     -0.001026     -0.001995
O	      6.21763      8.40376      8.30564         0.015498     -0.009090     -0.042776
O	      6.04443      6.37806     10.23175        -0.017654      0.025754     -0.022099
O	      8.29361      8.62258     10.45925        -0.031680      0.058643     -0.002560
