# total energy = -92.91458200 eV
 
CRYSTAL
PRIMVEC
-2.106949 4.193620 -2.104043 
2.080296 4.166789 2.077233 
2.133448 0.013383 -6.311779 
PRIMCOORD
16 1
Li	      0.08804      4.25637     -4.36767         0.197159     -0.007384      0.097575
Li	      2.09491      6.37194     -4.25598        -0.049973     -0.179523      0.067855
Li	      2.05996      4.25577     -6.32400        -0.104065      0.012484      0.253889
Li	      2.14863      2.12952     -4.27256        -0.006236      0.186185     -0.002441
Mn	      0.02758      0.06505     -0.02610        -1.218755     -0.033187      0.531430
Mn	     -0.00210      6.37245     -2.16209         0.415492     -0.685113      0.057330
Ni	      0.01571      2.13118     -2.15250         0.180715      0.239418      0.026639
Ni	      2.16108      4.24596     -2.18558        -0.089070      0.029854     -0.576431
O	      0.00674      4.26713     -6.56222         0.225196     -0.020345      0.410140
O	      1.97247      6.33607     -2.11921        -0.606056     -0.306255      0.139897
O	      2.29838      4.25026     -4.27626         0.368934      0.023344      0.161172
O	      2.09874      4.13277      0.05327        -0.038914     -0.038234     -0.522730
O	      2.09157      2.15406     -2.00283        -0.351015      0.392214      0.425565
O	      0.02175      6.49493     -0.13642         0.286440     -0.256439     -0.669064
O	     -0.08232      4.35615     -2.12520         0.314088      0.295972      0.101533
O	      0.11238      1.99498     -0.04746         0.476061      0.347011     -0.502360
