# total energy = -236.90444430 eV
 
CRYSTAL
PRIMVEC
0.001504 6.330720 6.221644 
6.356598 -0.016315 6.238667 
4.231296 4.226044 -0.004619 
PRIMCOORD
36 1
Li	      4.26850      4.19056      0.11166         0.012059      0.097971     -0.046262
Li	      2.23513      8.35948      6.27454        -0.049450     -0.024699      0.031902
Li	      6.14185      4.32440      2.11957        -0.067944      0.017412     -0.044896
Li	      4.18919      2.22154      2.08661         0.006846     -0.010969     -0.070636
Li	      6.39411      8.44426     10.22991         0.084390     -0.002534      0.044937
Li	      4.33749      6.18428      2.13384        -0.021207      0.026701     -0.073834
Li	      4.25641      4.23928      3.97528        -0.047509      0.116763      0.070869
Li	     10.52863      8.43815     10.39890         0.009491     -0.015312      0.024056
Li	      8.43848      8.44816      8.38820         0.020324     -0.002139      0.030819
Sc	      2.06022      4.27873      6.22436        -0.247666      0.203574     -0.059013
Mn	      6.35915      6.32799      8.32879        -0.080828      0.066989      0.145526
V	      8.43792      6.43610     10.39112        -0.065935      0.005113      0.147630
V	      4.19943      6.37057      6.25720        -0.130690      0.145424     -0.064686
V	      4.36127      2.12249      6.16210         0.213357     -0.012693     -0.279380
Cr	      8.51312     10.45127     10.36509         0.264155     -0.416569      0.040554
Cr	      2.18684      4.17121      2.09277        -0.036512     -0.021513      0.056858
Fe	      6.34623      4.17834      6.18674         0.118524     -0.327769      0.012068
Cu	      6.26776      6.29886      4.03971        -0.135227      0.007858     -0.092927
O	      2.07432      2.21390      2.15216         0.076787      0.029338     -0.133900
O	      4.13231      4.21274      2.07539        -0.001489     -0.041327      0.085062
O	      4.24618      1.94139      4.31674         0.081647      0.296459      0.497346
O	      6.51722      4.15657      4.22138        -0.068926     -0.001331     -0.166058
O	      6.19229      2.20383      6.32392        -0.201645     -0.019940      0.044233
O	      8.44291      4.31745      6.21744         0.014115      0.068478     -0.049406
O	      2.09134      4.40734      4.08865         0.038227     -0.141196     -0.066359
O	      4.08670      6.34142      4.28808         0.143017     -0.054973     -0.102099
O	      4.28238      4.18311      6.18201         0.048453     -0.292232     -0.023914
O	      6.38085      6.31430      6.08217         0.110661     -0.057083      0.112908
O	      6.46213      4.37150      8.16404        -0.053431     -0.035758      0.116157
O	      8.36770      6.27846      8.22367         0.136206      0.083028     -0.540921
O	      2.14614      6.33011      6.23069        -0.003703     -0.095673      0.174682
O	      4.26784      8.30440      6.25124         0.028927      0.042750      0.060275
O	      4.38967      6.25285      8.31073         0.012876      0.013443      0.106778
O	      6.37567      8.25683      8.23197         0.032272     -0.062263      0.133428
O	      6.37501      6.31680     10.42767        -0.254536      0.020889     -0.093145
O	      8.47842      8.42082     10.39792         0.014363      0.393785     -0.028650
