# total energy = -237.98453117 eV
 
CRYSTAL
PRIMVEC
-0.014690 6.384711 6.271185 
6.356667 0.015892 6.240914 
4.243208 4.241553 0.005121 
PRIMCOORD
36 1
Li	      4.25918      4.23949      0.03545         0.012559      0.039619     -0.052400
Li	      8.42644      4.29413      4.16228        -0.007918      0.011047     -0.024005
Li	      6.29836      2.20837      4.20373        -0.004572      0.023638      0.016109
Li	      4.19674      6.29170      2.14707        -0.025047     -0.041730     -0.032317
Li	      2.19492      4.30847      2.14600         0.070284      0.050679      0.019675
Li	      4.20329      4.28711      4.10240        -0.015925      0.007654      0.004763
Li	      6.37532      4.18636      6.21462         0.022435     -0.073250     -0.001715
Li	      4.27447      8.43628      4.18357        -0.010629      0.005943     -0.043930
Li	      2.23199      6.28101      4.15307         0.031264     -0.016799     -0.068922
Sc	      2.10396      2.17394      4.11535        -0.005619     -0.015136      0.015091
Mn	      4.40690      2.06736      6.19491         0.005550      0.013221      0.023189
V	      8.40111      2.27738      6.12593        -0.065497     -0.030343     -0.021983
V	      6.37673      6.33547      8.52410         0.075525     -0.034991      0.194403
V	      8.51078      8.49768      8.47847        -0.025403     -0.030194     -0.032238
Cr	      2.07115      4.31468      6.21758         0.031469      0.012134     -0.041416
Cr	      4.21858      6.38814      6.23421        -0.014370     -0.031288     -0.031290
Fe	      6.18579      4.25254      2.16641         0.124467     -0.026033     -0.057589
Ni	      4.22772      2.14548      2.12194        -0.021369     -0.001041      0.063655
O	      2.13058      2.04779      1.98907        -0.104470      0.054039     -0.026653
O	      4.30085      4.18365      2.05476        -0.181775      0.115533      0.011265
O	      4.20033      2.11196      4.16087        -0.010223      0.039132      0.103428
O	      6.37484      4.30723      4.06764        -0.016733     -0.024086      0.174418
O	      6.52642      2.09830      6.21633         0.032257      0.052759      0.014245
O	      8.54259      4.05834      6.23783        -0.046821      0.082901      0.039327
O	      2.09588      4.24674      4.26485         0.002704      0.007902     -0.030305
O	      4.27155      6.37518      4.26071         0.004375     -0.021175     -0.021589
O	      4.09919      4.35332      6.40280         0.022783      0.015251     -0.087504
O	      6.26573      6.51499      6.31452        -0.031962     -0.043247      0.043617
O	      6.22614      4.41936      8.30148         0.068684      0.003686     -0.029997
O	      8.34393      6.42313      8.29686        -0.008827     -0.067862      0.060724
O	      2.19512      6.38764      6.34257        -0.001862     -0.021778     -0.031928
O	      4.21632      8.42052      6.30243         0.065348      0.002000     -0.142246
O	      4.31060      6.37789      8.28796        -0.074164     -0.007152      0.012074
O	      6.38292      8.48925      8.28756         0.062326      0.016971     -0.008159
O	      6.33363      6.41851     10.24831         0.001278     -0.015953     -0.085997
O	      8.44885      8.51581     10.45864         0.039880     -0.052055      0.076198
