# total energy = -241.69438433 eV
 
CRYSTAL
PRIMVEC
0.012568 6.293465 6.387738 
6.322280 -0.002177 6.402500 
4.225728 4.216222 -0.012233 
PRIMCOORD
36 1
Li	      4.19019      2.07493      2.14748        -0.040224     -0.008113      0.006737
Li	      4.17866      0.02350      4.23083        -0.037942      0.005713     -0.011262
Li	      4.19410      6.23832      2.21640         0.032106     -0.012260      0.027115
Li	      8.48970      4.28994      8.53968         0.046971      0.012552      0.001060
Li	      2.10643      2.11407      4.25064         0.018084     -0.003849     -0.003676
Li	      4.18872      4.26325      4.26040         0.002495      0.032788      0.042893
Li	      8.39154      6.27846      6.46326         0.000003     -0.005093      0.087994
Li	      4.28220      6.26211      6.37588         0.039619     -0.027342     -0.039211
Li	      6.35647      6.28008      8.49443         0.033559      0.012173     -0.019841
Sc	      4.24215      4.20175      8.47108         0.056606     -0.006158     -0.040200
Mn	      2.09837      0.05346      2.17847        -0.006573      0.086719     -0.222202
V	      2.14816      2.11350      0.04764        -0.014158     -0.206374     -0.111616
V	      6.11072      2.13392      4.25760        -0.180126      0.038912      0.047957
V	      6.36653      4.31262      6.41360         0.031286      0.013078      0.032734
Cr	     10.50936      4.24097      6.41898        -0.069648     -0.039086      0.047630
Cr	      8.46302      6.27875     10.60612         0.077708     -0.019753      0.115438
Fe	      0.11564      4.10661      4.16131        -0.063310      0.090835      0.065139
Fe	      6.36767      8.26941      6.35371         0.041443      0.066158      0.034180
O	      2.12761      1.99187      1.97281         0.025459      0.135021      0.344636
O	      4.36613      4.23148      1.99042         0.069588     -0.044794     -0.012923
O	      4.37692      2.05898      4.26985         0.098805      0.047196     -0.004266
O	      6.35016      4.05893      4.36227        -0.038855      0.008928     -0.102299
O	      6.42720      2.11113      6.26649        -0.094862     -0.030084     -0.075031
O	      8.45826      4.18072      6.43407        -0.052851      0.055855      0.016448
O	      2.07131      4.25626      4.23206         0.051902      0.029698     -0.068559
O	      4.15541      6.40698      4.25782        -0.030265     -0.152565     -0.012486
O	      4.33459      4.16991      6.42541         0.032053      0.002297      0.056346
O	      6.35982      6.26854      6.38176        -0.022999     -0.124910      0.021507
O	      6.31000      4.25770      8.58182        -0.031376      0.005771     -0.060462
O	      8.43333      6.36138      8.63692         0.010864     -0.001824     -0.011337
O	      2.01385      6.25310      6.27865         0.020367     -0.072370     -0.072799
O	      4.15402      8.53430      6.23278         0.124666     -0.113307     -0.012977
O	      4.05925      6.28145      8.53726        -0.109545      0.025776     -0.012387
O	      6.33907      8.50785      8.65872        -0.048623      0.070795      0.059512
O	      6.38560      6.35732     10.73799         0.016244     -0.000986      0.017213
O	      8.41763      8.32314     10.70235         0.011529      0.128601     -0.131006
