# total energy = -244.14389146 eV
 
CRYSTAL
PRIMVEC
0.035422 6.395331 6.274869 
6.368036 0.041532 6.268915 
4.253807 4.268007 0.019273 
PRIMCOORD
36 1
Li	      8.49453      8.57249     12.45524        -0.090473     -0.000248     -0.009069
Li	      4.27225      8.53943      8.35651         0.044069      0.005207      0.031929
Li	      6.33950      2.25161      8.33312        -0.017946     -0.007253      0.009410
Li	      4.34557      2.17918      6.28251        -0.047507     -0.033968      0.028200
Li	      6.34182      4.12599      6.33274         0.010792     -0.085053      0.027021
Li	     10.48554      8.43610     10.48452        -0.009385     -0.074152     -0.065579
Li	      8.62337      6.57022     10.47033        -0.020796      0.010851     -0.009901
Li	      4.22563      6.43171      6.24455         0.016777     -0.015508      0.020328
Li	      8.56213      8.56386      8.43175        -0.021109      0.052408      0.006545
Sc	      6.32351      6.35798      8.37389         0.013179     -0.022636     -0.021740
Mn	      2.23468      6.51802      8.32217         0.023225      0.008686     -0.020345
V	      8.48429      4.31872      8.29644        -0.073966      0.051645     -0.032797
V	      6.36435      6.41068      4.25688         0.007867     -0.017189      0.069570
V	      6.39194      8.57949      6.31773         0.046186     -0.058814     -0.019892
Cr	      6.43213      6.45783     12.51943         0.027075      0.008087      0.015114
Cr	      6.40575      2.17426      4.22359         0.011983      0.029369     -0.031488
Cr	      4.24019      4.30174      4.19665        -0.007093     -0.002443      0.042209
Co	      8.48598      4.25200      4.23393         0.060360      0.027913      0.032254
O	      2.16706      2.31838      2.21065        -0.002406      0.024279     -0.042705
O	      4.17533      4.27609      2.08895        -0.018884     -0.004544     -0.003304
O	      4.24361      2.21183      4.21041         0.034141      0.034596     -0.035390
O	      6.27191      4.24488      4.25666         0.002101     -0.028577     -0.010590
O	      6.37495      2.06085      6.18558        -0.013661      0.033989     -0.000498
O	      8.62273      4.25067      6.36045         0.017380     -0.021049      0.101891
O	      2.23002      4.20916      4.19721         0.069204      0.085565     -0.017372
O	      4.39945      6.29592      4.20057        -0.063036     -0.020031     -0.001022
O	      4.03811      4.29494      6.19719        -0.007905      0.026668     -0.039443
O	      6.36750      6.55011      6.26481         0.004899      0.096862      0.039678
O	      6.49224      4.30861      8.32525         0.081543     -0.018847      0.035939
O	      8.47267      6.17313      8.40175         0.024037     -0.086721     -0.000093
O	      2.08928      6.32621      6.24584        -0.019997     -0.017454     -0.023376
O	      4.51502      8.64134      6.23569        -0.015335      0.028719      0.000398
O	      4.30906      6.44176      8.41528         0.062394      0.021916     -0.038469
O	      6.44585      8.51259      8.33153        -0.029601      0.007844      0.008548
O	      6.40093      6.56331     10.50198        -0.032757      0.004856      0.006838
O	      8.42833      8.62051     10.46450        -0.065353     -0.044973     -0.052798
