# total energy = -241.40679199 eV
 
CRYSTAL
PRIMVEC
0.035650 6.290687 6.399931 
6.225794 0.014016 6.421131 
4.166851 4.224499 -0.006958 
PRIMCOORD
36 1
Li	     10.31163      4.30109      6.42183         0.024378      0.038897      0.013217
Li	      4.11410      2.18870      2.15224        -0.046004      0.072203      0.007202
Li	      6.25266      2.12580      4.31395         0.011224      0.026134     -0.050652
Li	      2.14063      4.17476      2.22935        -0.022057     -0.021373      0.147542
Li	      2.07963      2.13033      4.21876        -0.045027      0.016140      0.004983
Li	      4.12293      4.20147      4.19018        -0.050144      0.028687      0.004484
Li	      4.23376      2.04220      6.41640         0.005937      0.026363      0.004203
Li	      6.24932      4.22174     10.67104         0.019604     -0.004008     -0.003629
Li	      6.28653      6.30407      8.60198         0.067426     -0.011228     -0.012640
Sc	      6.19531      8.33626      6.35162        -0.003607     -0.005025     -0.044942
Mn	      4.19348      6.29927      2.13037         0.081574     -0.069485      0.079955
V	      6.18589      4.22607      2.19532        -0.247200     -0.052089      0.087202
V	      4.23210      0.16620      4.28826         0.035191      0.077768     -0.013514
V	      8.26946      6.32702     10.69732         0.019424     -0.076082     -0.031479
Cr	      6.28118      4.20815      6.35245         0.014636      0.079703      0.016396
Cr	      4.16582      6.31030      6.39619        -0.010285     -0.001335     -0.088757
Cr	      8.35837      8.41308      8.54904         0.036173     -0.120478      0.019404
Cu	      8.33671      2.18054      6.43060        -0.019032      0.060908      0.029832
O	      1.98106      2.00481      2.19767        -0.059342      0.237059      0.214825
O	      4.20835      4.32141      2.15526        -0.025053      0.070770     -0.010866
O	      4.18365      1.92823      4.21306         0.007360     -0.053936      0.030964
O	      6.38550      4.21506      4.29914         0.072764      0.016943      0.105267
O	      6.36411      2.22467      6.36845        -0.050083     -0.073896     -0.028675
O	      8.28882      4.26965      6.23355        -0.041031     -0.102306     -0.055319
O	      2.08017      4.30308      4.32080        -0.030136      0.000301      0.100863
O	      4.04206      6.32202      4.41531         0.035002      0.010304      0.068731
O	      4.21658      4.24976      6.48328         0.005962     -0.006876     -0.017259
O	      6.17379      6.26711      6.41296        -0.024006     -0.011421     -0.005585
O	      6.21948      4.08996      8.39571        -0.026635      0.004179     -0.024461
O	      8.44006      6.39639      8.61041         0.023895      0.026438     -0.076996
O	      2.13017      6.26612      6.45153         0.138224     -0.128905     -0.159649
O	      4.12460      8.31083      6.47127         0.083823     -0.015208      0.003502
O	      4.13135      6.22956      8.56361         0.024139     -0.024258     -0.075424
O	      6.33319      8.49827      8.48349         0.056881     -0.101725     -0.054654
O	      6.23311      6.28959     10.66341        -0.057486      0.027947     -0.024007
O	      8.36599      8.43629     10.52591        -0.006487      0.058892     -0.160064
