# total energy = -240.52896106 eV
 
CRYSTAL
PRIMVEC
0.025454 6.357124 6.396101 
6.163589 0.017758 6.402922 
4.133509 4.267036 -0.012168 
PRIMCOORD
36 1
Li	      6.20815     10.55952      8.47905        -0.005880     -0.039652     -0.036112
Li	      6.19038      8.50596     10.53386        -0.044243     -0.015095     -0.006918
Li	      8.20367      4.36189      8.49330        -0.012648      0.007404      0.016757
Li	      6.19889      6.40627      4.40274         0.038649      0.015032      0.111958
Li	      8.16043      6.44830      6.53247         0.056513     -0.012852     -0.005985
Li	      6.13230      4.34719      6.46087        -0.023062     -0.035876      0.037605
Li	      8.23672      6.44999     10.55015        -0.002832      0.010893      0.020064
Li	      6.29397      8.38150      6.48516         0.056128     -0.054136      0.051732
Li	      8.18564      8.38593      8.48479         0.011566     -0.021460      0.015639
Sc	      8.11196      4.30103      4.22437         0.063470      0.134422     -0.034196
Mn	      8.19238      2.17029      6.38263        -0.284357      0.019702     -0.054902
V	      0.06424      6.36273      6.38906         0.111622      0.712932     -0.117555
V	      4.17780      8.52829      8.51415         0.171860     -0.008443      0.280179
V	      4.08450      4.21850      4.33599        -0.056775     -0.105227      0.019972
Cr	     10.26331      6.42064      8.52692         0.003826      0.105980      0.043944
Cr	      0.11163      4.23054      4.23818         0.079797      0.073237     -0.191576
Cr	      4.17648      6.35425      6.40989         0.109954     -0.334139     -0.043581
Ni	      6.29130      6.38680      8.47720        -0.002175     -0.032132      0.195089
O	      2.09143      2.14513      1.95266         0.010336      0.041442     -0.179273
O	      4.14219      4.25457      2.13792        -0.033045     -0.071547     -0.040586
O	      4.08670      2.20729      4.19819        -0.029755     -0.030347     -0.111352
O	      6.02108      4.24678      4.24028         0.058246      0.016390     -0.032032
O	      6.07437      2.03222      6.54137         0.148785     -0.577622      0.022658
O	      8.28198      4.17385      6.30416         0.141585     -0.295604      0.073706
O	      2.21486      4.24607      4.24142        -0.000562     -0.004005      0.015276
O	      4.18900      6.38044      4.27785        -0.004525      0.098229      0.006010
O	      4.11352      4.36561      6.24723        -0.015212      0.205456      0.006913
O	      6.12891      6.34048      6.46585        -0.095628      0.002557     -0.186913
O	      6.18719      4.17211      8.68126         0.005446     -0.103358      0.059415
O	      8.31043      6.40115      8.54665         0.101422     -0.012757      0.011668
O	      2.11481      6.51766      6.37368        -0.186625      0.167788     -0.020080
O	      4.27271      8.51022      6.33303        -0.097721      0.154203     -0.030345
O	      4.13906      6.46532      8.46338        -0.051937      0.138820      0.019808
O	      6.13337      8.46772      8.54355        -0.179617      0.020573     -0.069647
O	      6.18234      6.28147     10.69971        -0.101491     -0.284411      0.024821
O	      8.36105      8.56932     10.76301         0.058887      0.113604      0.127839
