# total energy = -247.71805046 eV
 
CRYSTAL
PRIMVEC
0.004930 6.253896 6.394645 
6.336826 0.020600 6.378722 
4.237278 4.171449 0.001148 
PRIMCOORD
36 1
Li	      4.23493      0.06295      4.28622        -0.005607     -0.016235      0.032908
Li	      6.26454      2.10421      4.32174        -0.082463      0.014470      0.021772
Li	     10.51529      6.33013      8.51394         0.020559      0.024054     -0.023596
Li	      4.31100      4.16925      4.31871        -0.004285     -0.000261      0.009979
Li	      4.26094      2.10846      6.29666         0.011992     -0.006445     -0.058888
Li	      6.27444      4.20330      6.34997        -0.000147      0.006329     -0.009968
Li	      8.46428      6.30510     10.59476         0.010684     -0.005023      0.004490
Li	      4.33782      6.18342      6.33990         0.055248     -0.038069     -0.009060
Li	      6.35538      6.22487      8.54828        -0.013426      0.031282      0.045281
Sc	      2.20438      4.12610      6.35647         0.074360     -0.044047      0.091678
Mn	     10.56477      8.34717     10.63606        -0.020832      0.041509     -0.038537
V	      6.33187      4.17575      2.20904        -0.014525     -0.068291      0.058579
V	      8.40154      4.33283      8.49627         0.090513      0.076685     -0.145497
V	      8.51062      8.27627      8.52845         0.038662      0.077553      0.017335
Cr	      6.30353      0.06297      6.33430        -0.013954      0.061157     -0.025637
Cr	      8.40673      2.12539      6.31858        -0.063292     -0.026356     -0.047747
Cr	      4.25874      8.28643      8.58512        -0.004421     -0.012819      0.042016
Cr	      6.34798      6.23739      4.29237         0.002309     -0.104167      0.066643
O	      2.20909      2.15274      2.09028         0.013358     -0.059781      0.032344
O	      4.21462      4.09739      2.05334         0.024923     -0.048431     -0.073623
O	      4.12954      2.08773      4.14462        -0.016340      0.026918     -0.096499
O	      6.27529      4.26490      4.13946         0.011124      0.059076     -0.106063
O	      6.45322      2.03125      6.33441         0.045406     -0.028086     -0.003963
O	      8.53904      4.12120      6.43417        -0.025196      0.005069      0.001077
O	      2.07708      4.15341      4.23723        -0.055361     -0.038384      0.025618
O	      4.33591      6.39350      4.26420         0.022799     -0.007049     -0.008680
O	      4.20250      4.18439      6.53887         0.005235      0.020845     -0.030385
O	      6.36304      6.30142      6.26161         0.004897      0.002260     -0.074913
O	      6.40274      4.21312      8.50325        -0.063604     -0.001715     -0.033033
O	      8.48558      6.28964      8.53386        -0.004149     -0.060251      0.031308
O	      2.02043      6.31250      6.49205        -0.022796      0.035412      0.065686
O	      4.18989      8.39139      6.49899        -0.013453     -0.006558      0.101644
O	      4.09157      6.22756      8.52055        -0.041453      0.071763      0.027510
O	      6.31246      8.33960      8.50782        -0.050907      0.035123     -0.024550
O	      6.33763      6.11429     10.75959         0.038101     -0.018089      0.058750
O	      8.55347      8.32873     10.64756         0.046038      0.000555      0.076020
