# total energy = -242.25518380 eV
 
CRYSTAL
PRIMVEC
0.012473 6.114337 6.468787 
6.431671 0.025454 6.456475 
4.309677 4.091404 -0.005449 
PRIMCOORD
36 1
Li	     10.68482      4.16871      6.53807         0.006962      0.044695      0.045080
Li	     10.62373      6.17308      8.72594        -0.027656     -0.026263      0.001096
Li	      8.53431      4.22611      8.71290         0.014258     -0.073829     -0.012795
Li	      6.28628      6.18595      4.25384        -0.047812      0.024478     -0.016909
Li	      8.59819      6.07952      6.65776         0.007046     -0.015947      0.067833
Li	      0.09393      3.96285      4.15490         0.026173     -0.025059     -0.059159
Li	      8.72455      6.09164     10.56684        -0.005012      0.043225     -0.002195
Li	      4.32194      6.09415      6.31267        -0.014851      0.050334     -0.000772
Li	      6.64487      6.02228      8.59988         0.045919      0.013458     -0.015239
Sc	      6.43956      8.11458      6.38936        -0.051841      0.030674     -0.024661
Mn	      4.24071      4.16057      4.30377        -0.016295     -0.001015     -0.056459
Mn	      6.47376      4.17401      6.51167        -0.046628     -0.020255      0.087566
V	      2.24250      8.16486      6.43373        -0.072150     -0.180297     -0.136088
V	      4.30442      8.17047      8.60431         0.113924      0.061637     -0.213184
V	      6.48701      8.04304     10.78152         0.131126     -0.176741     -0.107773
Cr	      2.11137      0.07083      2.17440        -0.090517     -0.015458     -0.154799
Cr	      4.36162      4.03412      8.61487        -0.125052     -0.114914      0.069359
Co	      4.26192      0.06452      4.31913         0.070035      0.210034      0.099436
O	      2.23996      2.03778      2.05675         0.005688     -0.026780      0.025563
O	      4.42008      4.02789      2.13770         0.051545      0.014475      0.053156
O	      4.43121      2.12189      4.19603        -0.022435      0.398205      0.119336
O	      6.31614      4.03521      4.26148         0.084183     -0.026823     -0.044036
O	      6.59180      2.20038      6.27782        -0.181787      0.078705      0.035182
O	      8.58226      4.07059      6.27926        -0.022174      0.096621      0.598156
O	      2.24253      4.07959      4.39068         0.028985     -0.055099      0.019580
O	      4.29264      6.02414      4.31308         0.023857     -0.056055      0.009930
O	      4.26596      4.07901      6.59000         0.054173     -0.006794      0.001817
O	      6.43927      6.06347      6.47998         0.006082     -0.078589      0.006274
O	      6.32124      4.09821      8.54782         0.002880      0.012431      0.009470
O	      8.60589      6.20056      8.61541         0.001281      0.055813      0.003995
O	      2.13551      6.16202      6.63502        -0.003263     -0.012662      0.086938
O	      4.28694      8.14065      6.57564         0.006866      0.043320      0.042428
O	      4.15693      6.14519      8.78692        -0.076594      0.114277     -0.458210
O	      6.49064      8.21516      8.70077         0.055497      0.046001     -0.040218
O	      6.42843      6.28763     10.79293         0.063352      0.106950     -0.020665
O	      8.47235      8.24202     10.71758         0.004235     -0.532754     -0.019037
