# total energy = -239.84513141 eV
 
CRYSTAL
PRIMVEC
-0.010626 6.389435 6.188417 
6.366981 -0.041669 6.218050 
4.225054 4.260703 -0.007678 
PRIMCOORD
36 1
Li	      6.38635     10.45276      8.20543         0.014636     -0.015263     -0.043604
Li	      6.39196      8.42926     10.21853         0.022015     -0.067852      0.025546
Li	      6.31524      2.21520      8.25136        -0.040697      0.096287      0.025095
Li	      8.36619      4.26663      8.26683        -0.024560      0.054098      0.032688
Li	      8.42267      6.43830      6.29725         0.043880      0.019403      0.034432
Li	      6.37634      4.22531     10.24646        -0.020716      0.027678     -0.053465
Li	      6.42383      8.42911      6.34495         0.042177     -0.050275     -0.037713
Li	      4.16472      4.23994      8.16009         0.009089     -0.012729      0.018315
Li	      6.33568      6.42466      8.19443        -0.002442      0.011026     -0.023859
Sc	      4.23528      4.23496      4.11722         0.018969      0.022575      0.033921
Mn	      4.28465      6.29243     10.21374        -0.012243     -0.014196     -0.013915
Mn	      6.32917      4.25787      6.30868         0.025455     -0.044633      0.124723
V	      2.08623      2.10740      0.08403        -0.048839     -0.065798     -0.078114
V	      8.40869      6.33758     10.22116         0.018333     -0.004426      0.023025
V	      2.07452      2.19249      4.15915        -0.030550      0.020785      0.107132
Cr	      4.21976      4.27766      0.03423         0.038139      0.007734     -0.024891
Cr	      4.31403      8.49173      8.22153         0.069902     -0.049572     -0.005132
Cu	      4.26327      6.33281      6.25747         0.042157     -0.008421     -0.044655
O	      2.17528      2.10087      1.99215         0.026796      0.024926     -0.055327
O	      4.24590      4.15984      2.02875        -0.001859     -0.066437      0.002415
O	      4.13270      2.12670      4.06163         0.010218      0.026086     -0.056569
O	      6.34365      4.36105      4.26909         0.020726     -0.003887     -0.004028
O	      6.48969      2.01249      6.26542        -0.064167     -0.013815      0.004480
O	      8.51132      4.07872      6.19202        -0.028063      0.030656     -0.028621
O	      2.12483      4.32104      4.13603         0.041593      0.007051     -0.004063
O	      4.18581      6.37162      4.19206        -0.035853     -0.035078     -0.203328
O	      4.31865      4.17554      6.19626         0.081790     -0.066170     -0.093516
O	      6.40547      6.39168      6.09032         0.034402     -0.019894     -0.034669
O	      6.36079      4.24616      8.15094        -0.005488      0.003982     -0.085949
O	      8.48093      6.37988      8.47578         0.020201      0.001585      0.012367
O	      2.01799      6.48733      6.09245        -0.076304      0.057798     -0.022620
O	      4.10768      8.62770      6.23440        -0.069099      0.134046      0.065851
O	      4.22787      6.46626      8.18423        -0.023308      0.055111      0.232288
O	      6.25631      8.51535      8.27555        -0.052785     -0.061942     -0.008075
O	      6.44473      6.33526     10.42396         0.001094      0.014836      0.095286
O	      8.48101      8.36630     10.52492        -0.044598     -0.015277      0.084550
