# total energy = -92.71986747 eV
 
CRYSTAL
PRIMVEC
-2.117328 4.214278 -2.114408 
2.090544 4.187315 2.087466 
2.143958 0.013449 -6.342872 
PRIMCOORD
16 1
Li	      0.08891      4.29841     -4.41080         0.246718     -0.010991      0.133257
Li	      2.11559      6.43487     -4.29802        -0.066930     -0.231102      0.082996
Li	      2.08031      4.29780     -6.38646        -0.130265      0.018702      0.325874
Li	      2.16985      2.15056     -4.31476        -0.009626      0.236398      0.000998
Mn	      0.04871      0.08638     -0.04731        -1.568609     -0.039475      0.707780
Mn	     -0.00212      6.43539     -2.18345         0.518938     -0.889388      0.069914
Ni	      0.01586      2.15223     -2.17376         0.223525      0.309102      0.019108
Ni	      2.18243      4.28790     -2.20716        -0.091263      0.042299     -0.759055
O	      0.00681      4.30927     -6.62703         0.253498     -0.028249      0.570977
O	      1.99195      6.39865     -2.14014        -0.743762     -0.429093      0.221537
O	      2.32108      4.29223     -4.31850         0.441920      0.031586      0.235514
O	      2.11947      4.17359      0.05379        -0.049978     -0.011761     -0.727061
O	      2.11223      2.17533     -2.02262        -0.485826      0.541655      0.522271
O	      0.02197      6.55907     -0.13777         0.417594     -0.349048     -0.845003
O	     -0.08314      4.39917     -2.14619         0.441367      0.346231      0.127780
O	      0.11349      2.01468     -0.04792         0.602698      0.463133     -0.686888
