# total energy = -239.31224789 eV
 
CRYSTAL
PRIMVEC
0.028217 6.369052 6.374964 
6.349233 0.040851 6.361348 
4.248885 4.253161 0.011529 
PRIMCOORD
36 1
Li	      6.38748      0.28023      6.24896        -0.020815     -0.135026     -0.033728
Li	      8.25574      2.15668      6.26807         0.126886      0.016714     -0.082350
Li	      8.49508      4.24431      4.38423        -0.040981      0.081402      0.038378
Li	      6.43101      2.06439      4.45655        -0.006968     -0.009340     -0.091672
Li	      6.43108      2.09861      8.17180        -0.008484     -0.032422     -0.007050
Li	      4.48268      2.10674      6.33229        -0.070336      0.036342     -0.114954
Li	      6.35313      4.06460      6.26712        -0.015661      0.036953     -0.082974
Li	      8.39800      6.48955     10.70174         0.037277     -0.025672      0.059834
Li	      6.38459      8.52950      6.40383        -0.019881     -0.006098     -0.021431
Sc	      8.48166      8.42864      8.55138         0.165112     -0.058432      0.031873
Mn	      6.40364      6.36142      4.29795         0.249338      0.030795      0.148702
Mn	      4.27509      4.22983      4.32877        -0.069681     -0.061912      0.041276
V	      4.26944      8.53596      8.46427        -0.016318      0.084671     -0.185819
V	      8.47507      4.29091      8.30005         0.120677      0.087617     -0.322614
V	      4.20560      6.39850      6.38031         0.075162      0.184462     -0.141047
Cr	      4.26999      8.55572      4.33727        -0.005476     -0.021931      0.206125
Cr	      6.37710      6.40623      8.54904        -0.120544      0.004362      0.063824
Ni	      2.07564      0.06987      2.11456        -0.037190     -0.052017      0.005611
O	      6.34467      2.16968      6.32196         0.031262      0.010963      0.005629
O	      2.16528      2.23457      2.06612         0.446832     -0.123377     -0.032694
O	      4.16062      4.17471      2.09140         0.013897      0.029436     -0.000183
O	      4.10789      2.10944      4.08712        -0.286237      0.024905      0.768635
O	      6.36825      4.44131      4.14197         0.029278      0.057457      0.003873
O	      8.42520      4.33026      6.55536        -0.035289     -0.002917      0.385723
O	      2.08497      4.12960      4.12640        -0.139872     -0.016262     -0.096744
O	      4.35166      6.46963      4.41490         0.053188      0.053475     -0.007979
O	      4.23464      4.38829      6.44536        -0.018137     -0.025245      0.154998
O	      6.15618      6.40264      6.51747         0.071660     -0.020463      0.088959
O	      6.42620      4.36619      8.61686         0.031198      0.058249      0.006007
O	      8.39466      6.32068      8.51482        -0.099217      0.027312     -0.005823
O	      2.35970      6.38350      6.46893        -0.065340     -0.071510      0.023123
O	      4.30916      8.41198      6.39279         0.023381     -0.216229     -0.575659
O	      4.30161      6.43269      8.44347        -0.034683      0.075469     -0.019565
O	      6.37898      8.47356      8.54644        -0.436261      0.034602      0.003448
O	      6.39563      6.31545     10.55513         0.010760     -0.015611     -0.108154
O	      8.62319      8.53946     10.57499         0.061462     -0.040724     -0.105580
