# total energy = -236.99822097 eV
 
CRYSTAL
PRIMVEC
0.027406 6.336810 6.249494 
6.285131 0.015604 6.261114 
4.192381 4.234330 0.008280 
PRIMCOORD
36 1
Li	      2.15378      2.20989      0.12189        -0.015906      0.011887      0.026420
Li	      4.10942      2.13467      2.02885        -0.023995      0.001353      0.036570
Li	      8.45080     10.51445     10.52671         0.020278     -0.041265      0.016166
Li	      6.32350      2.14834      8.26056        -0.002155     -0.006165     -0.010861
Li	      8.31935      4.19010      8.23993         0.015063     -0.013720      0.025149
Li	      8.42720      6.22726      6.34076         0.052397     -0.066132     -0.001026
Li	      6.48272      4.20014      6.33143         0.079511     -0.022420     -0.053515
Li	     10.41017      8.54037     10.46878        -0.005398      0.010301     -0.031321
Li	      4.20901      6.45467      6.25301        -0.029093      0.008582     -0.001992
Sc	      6.25569      2.10684      4.30066        -0.016582     -0.013209      0.118128
V	      6.28345      6.38046      4.19410         0.034294      0.047001     -0.069099
V	      6.28098      6.32435      8.22859        -0.084626     -0.037996      0.059951
V	      4.16063      4.24800      4.23072        -0.208274      0.090632     -0.117857
Cr	      2.14931      6.35821      8.32147         0.006680      0.132623      0.036342
Cr	      8.42292      6.36513     10.38956         0.137292     -0.155336     -0.011194
Cr	      4.24757      4.22962      8.26140         0.128350     -0.021042      0.083354
Co	      4.11328      4.20450      0.07689        -0.142423      0.036701      0.087621
Cu	      6.20770      8.48343      6.24234         0.027201     -0.134096     -0.011122
O	      2.11044      1.98809      2.22641         0.021735     -0.067086      0.053211
O	      4.33820      4.21054      2.31668         0.014998     -0.018248      0.019057
O	      4.12321      2.22820      4.21831         0.148689     -0.055127      0.019998
O	      6.24363      4.25059      4.17616         0.030983     -0.079326     -0.033454
O	      6.31211      1.94171      6.29438        -0.016828     -0.114173     -0.093568
O	      8.53552      4.20626      6.27413         0.156198     -0.001501      0.004834
O	      2.23023      4.28142      4.00608        -0.138254      0.043607     -0.132354
O	      4.19177      6.25239      4.21262        -0.034514      0.115742      0.032371
O	      4.13161      4.24145      6.14458         0.057169      0.004608      0.004341
O	      6.25589      6.46074      6.21650         0.017797     -0.046335     -0.118294
O	      6.22125      4.37254      8.24988        -0.058289      0.037143     -0.052362
O	      8.36724      6.45528      8.39300        -0.005080      0.057183      0.013853
O	      1.96560      6.28957      6.26158        -0.063669      0.090189     -0.021306
O	      4.25067      8.63427      6.25143        -0.138991      0.150521     -0.003008
O	      4.16385      6.24679      8.29910        -0.008105     -0.013457     -0.060648
O	      6.39075      8.47338      8.42557         0.037503      0.049273      0.184211
O	      6.39528      6.37467     10.26700         0.065717      0.047210      0.040858
O	      8.40008      8.36340     10.31294        -0.059674     -0.027922     -0.039455
