# total energy = -237.33990762 eV
 
CRYSTAL
PRIMVEC
0.011974 6.174235 6.307745 
6.316971 0.006913 6.313121 
4.226726 4.135775 -0.010928 
PRIMCOORD
36 1
Li	     10.44002      4.18944      6.32899        -0.053409     -0.000727      0.003047
Li	      6.32015      4.13554      2.08451        -0.022005     -0.010285     -0.015867
Li	      8.36479      4.23735      4.35999        -0.019166     -0.021566      0.023808
Li	      8.45159      4.13613      8.28344         0.001874      0.009142     -0.027116
Li	      6.46059      6.14673      4.33099         0.020964     -0.017575      0.018992
Li	      4.11285      4.10217      4.27935        -0.024773     -0.019666      0.030939
Li	      8.30496      6.08525      6.23527        -0.011176     -0.006218      0.016729
Li	      6.41003      4.20826      6.31251        -0.039618     -0.077675      0.024590
Li	      2.23267      4.06617      6.25059         0.011129      0.000519     -0.019138
Sc	      0.14369      4.20162      4.23958         0.035679      0.017239      0.012107
V	      4.19484      2.15405      2.11766        -0.008265     -0.017471     -0.018946
V	      4.25052      6.06790      2.07904        -0.023999      0.035070      0.003902
V	      6.25114      2.21717      4.27279        -0.021549     -0.107662      0.022257
Cr	      8.39903      2.12599      6.30803         0.013208     -0.004977     -0.045857
Cr	      4.25659      6.11871      6.28098        -0.005349      0.004629     -0.071421
Cr	      4.18562      4.13033      8.38042        -0.008414      0.002547      0.035477
Co	      2.14737      6.18880      4.20824        -0.018399     -0.028823      0.007810
Ni	      6.36220      6.17550      8.30882         0.067894     -0.052035      0.078350
O	      2.04254      2.05048      2.00063         0.031528     -0.021881      0.017706
O	      4.23538      4.11064      2.08436        -0.002549      0.014011     -0.024265
O	      4.32350      2.03294      4.10046        -0.046758      0.003789      0.041329
O	      6.34710      3.95664      4.19316         0.017647      0.169314     -0.010030
O	      6.39620      2.04102      6.25363         0.003134     -0.007405     -0.012509
O	      8.44592      4.06362      6.27913        -0.033897      0.032173      0.017756
O	      2.10768      4.24980      4.19555         0.003553      0.083506      0.034001
O	      4.12605      6.20013      4.21339        -0.060352     -0.024396      0.014570
O	      4.19525      4.16313      6.44229         0.012859     -0.037802     -0.039802
O	      6.24099      6.19181      6.30237         0.040002      0.011839     -0.144940
O	      6.20212      4.04528      8.47940         0.004949     -0.034714     -0.012846
O	      8.49429      6.25286      8.52989         0.059856     -0.001760      0.089210
O	      2.21127      6.24207      6.14401         0.000934     -0.036113     -0.107014
O	      4.14561      8.19714      6.35189         0.018796      0.042911     -0.042319
O	      4.25749      6.19426      8.31088        -0.115509     -0.008612      0.021117
O	      6.35444      8.23203      8.53827         0.039348      0.163288     -0.003923
O	      6.49474      6.28565     10.44888         0.107618     -0.015278      0.108976
O	      8.39702      8.18893     10.50985         0.024214     -0.037335     -0.026683
