# total energy = -238.78632688 eV
 
CRYSTAL
PRIMVEC
0.020161 6.413765 6.148954 
6.386427 0.031845 6.136846 
4.276674 4.286560 0.002655 
PRIMCOORD
36 1
Li	      6.46816      6.43638     12.16178         0.026058     -0.031768      0.025612
Li	      2.21914      8.44179      6.04373         0.006141     -0.001906      0.093137
Li	      6.60240      8.45233     10.28425        -0.014411     -0.014478      0.054628
Li	      6.21244      6.43737      4.08260        -0.009074      0.006180     -0.045531
Li	      4.24857      4.51208      4.08232        -0.004201      0.028932     -0.019935
Li	     10.52295      8.50691     10.25872         0.024150      0.010173     -0.057574
Li	      8.62592      6.64104     10.30006         0.054219      0.011825     -0.044536
Li	      4.18915      6.55186      5.96219        -0.022100      0.042540      0.025401
Li	      8.51493      8.55016      8.33549        -0.024842     -0.040851     -0.053999
Sc	      6.31595      4.31842      6.09745         0.015821     -0.028793      0.121886
V	      6.38046      4.30163      2.04270        -0.137399      0.043642      0.067242
V	      4.28857      2.18495      6.03084        -0.081887     -0.021143      0.185251
V	      2.08829      4.32868      5.98273         0.117378     -0.125813     -0.034853
Cr	      4.30342      8.55646      8.19841        -0.076637      0.024685      0.156933
Cr	      8.61107     10.59555     10.26033        -0.089815      0.080368      0.085729
Cr	      2.18901      4.26204      2.09047         0.026628     -0.052993      0.000282
Co	      4.28338      6.44408      2.16744        -0.017735      0.045537     -0.391698
Co	      6.42310      6.43386      8.30646         0.143622      0.055132     -0.199422
O	      2.24641      2.20420      2.02084        -0.026942      0.011532      0.041563
O	      4.28756      4.16973      2.09639        -0.043849      0.113018     -0.007415
O	      4.26954      2.04695      4.19827         0.018237     -0.060773     -0.125688
O	      6.48335      4.30153      4.06074         0.010570     -0.011260     -0.128045
O	      6.24222      2.24676      6.20408         0.115932     -0.035484      0.274104
O	      8.47999      4.40812      6.17903         0.043206     -0.001707     -0.081221
O	      2.17134      4.28630      4.17656         0.019990     -0.003610      0.053019
O	      4.28160      6.41786      4.07332        -0.091224      0.131814     -0.264246
O	      4.20089      4.14606      6.17238         0.002701      0.030875     -0.042071
O	      6.51743      6.51943      6.16994         0.002177     -0.022773      0.010027
O	      6.57867      4.34939      8.16706        -0.025771     -0.170235      0.066048
O	      8.56582      6.29984      8.03660         0.060200      0.031679      0.085373
O	      2.14940      6.28753      6.22255        -0.000019      0.052515      0.033421
O	      4.44316      8.54665      6.23238        -0.048046      0.005558     -0.045975
O	      4.17387      6.52616      8.26398         0.078583     -0.012101     -0.003705
O	      6.34097      8.59422      8.05082        -0.034559     -0.024687     -0.029075
O	      6.28965      6.46683     10.22703         0.016853     -0.081545      0.169650
O	      8.54526      8.66326     10.25412        -0.033951      0.015917      0.025683
