# total energy = -234.63355984 eV
 
CRYSTAL
PRIMVEC
0.033381 6.265613 6.261802 
6.395967 0.008587 6.286655 
4.269614 4.199234 0.000114 
PRIMCOORD
36 1
Li	      6.46880      6.34275     12.44939         0.018637     -0.019978     -0.034700
Li	      6.60557      8.25509     10.49120         0.002323     -0.028826      0.008981
Li	      6.36807      2.29747      8.34397        -0.005180      0.028844      0.024026
Li	      8.41338      4.21081      8.35080         0.025669      0.041973      0.035010
Li	      6.48425      4.11400      6.44166         0.014319     -0.020721      0.003903
Li	      6.29800      4.23476     10.31706        -0.025985     -0.006514      0.033229
Li	      8.47613      6.41951     10.40947        -0.010673      0.006299     -0.009730
Li	      2.15956      4.26347      6.27583        -0.006851      0.030685     -0.021631
Li	      8.71032      8.29141      8.52384         0.067493     -0.006508      0.025941
Sc	      4.41741      2.06225      6.37468         0.148075     -0.028692      0.126280
V	      4.33367      8.41183      8.24332        -0.004427      0.086870     -0.130082
V	      2.08161      2.18657      4.18793        -0.065527      0.115984     -0.033737
V	      4.32708      4.16831      4.14809        -0.032336      0.066293     -0.065285
Cr	      8.60472     10.37994     10.46072         0.024743     -0.122840      0.046820
Cr	      4.26331      6.21826      6.29787        -0.068501      0.005182     -0.060219
Cr	      6.47901      6.22043      8.40445         0.068251     -0.065207      0.076725
Cu	      2.14989      6.25287      8.30427        -0.086629     -0.076540     -0.017408
Ni	      8.40679      2.11902      6.26816         0.057034      0.018937     -0.004606
O	      2.23463      2.05954      2.17852         0.018978      0.049928      0.071612
O	      4.20011      4.04377      2.18210        -0.113782     -0.088513     -0.011126
O	      4.14913      2.04267      4.10620        -0.036253     -0.044673     -0.022380
O	      6.39987      4.35057      4.07768         0.064169      0.042237      0.100141
O	      6.38407      2.09264      6.30678        -0.213761      0.002706     -0.017208
O	      8.53961      4.19803      6.16716        -0.005583      0.136947     -0.041520
O	      2.25700      3.99293      4.19169         0.030731     -0.102813      0.021539
O	      4.39918      6.25334      4.27994         0.081320     -0.015212      0.034262
O	      4.26692      4.22673      6.12534         0.018228     -0.002595      0.007763
O	      6.35366      6.28128      6.21500        -0.027788      0.015691      0.042189
O	      6.42232      4.28214      8.36891         0.033961      0.108977     -0.008579
O	      8.46617      6.30823      8.36570        -0.039233      0.010635     -0.083398
O	      2.27938      6.29346      6.35130         0.065504     -0.098217     -0.078912
O	      4.23232      8.27904      6.43046         0.036135     -0.054365      0.155236
O	      4.43984      6.34317      8.35727         0.132335      0.023072     -0.006291
O	      6.23023      8.37785      8.38659        -0.115669     -0.110140     -0.017975
O	      6.32121      6.26016     10.37639        -0.083030      0.017937     -0.026115
O	      8.53874      8.44639     10.49783         0.033301      0.083159     -0.122755
