# total energy = -234.09013612 eV
 
CRYSTAL
PRIMVEC
0.020677 6.511211 6.217833 
6.281852 0.018284 6.220066 
4.191251 4.346505 0.008972 
PRIMCOORD
36 1
Li	      4.33246      2.22511      2.19515        -0.040116     -0.008134     -0.011061
Li	      6.17865      2.25414      4.13069         0.021039      0.038160     -0.027064
Li	      6.27914      2.22358      8.31156         0.015011     -0.015034      0.004577
Li	      8.26269      4.39627      8.26067         0.067517     -0.040424     -0.001593
Li	      6.37538      6.40927      4.21122         0.007614      0.075573     -0.001261
Li	      4.29828      4.28795      4.17798        -0.016973     -0.039734      0.011848
Li	      6.26401      4.52379      6.18945         0.051966      0.072342     -0.006832
Li	      6.36125      8.55864      6.30918         0.083527     -0.019331     -0.052949
Li	      6.32586      6.47320      8.23642         0.020395      0.014069     -0.025358
Sc	      4.23556      4.33872      8.24929        -0.108622     -0.058183     -0.025822
V	      4.14731      4.32094      0.08823         0.042763     -0.018763      0.005426
V	      8.27092      2.21644      6.26779        -0.094367      0.024095      0.050678
V	      2.11323      6.29724      4.08324         0.070687      0.021583      0.022811
Cr	      6.25617      4.31332      2.11953        -0.107283      0.009206     -0.020354
Cr	      4.15966      0.07403      4.14316         0.006861     -0.056193      0.018552
Cr	      4.31473      6.55840      6.18638        -0.041838      0.032572      0.044752
Cu	      4.13659      2.24374      6.18562         0.002473      0.059188      0.053090
Cu	      0.05966      4.27795      4.08319         0.062497      0.035497     -0.050904
O	      2.08296      2.05832      1.85137        -0.054177     -0.019381     -0.048061
O	      4.27297      4.26741      2.00997         0.083387     -0.012212      0.028170
O	      4.19486      2.02326      4.25574         0.041468     -0.107003     -0.090932
O	      6.38298      4.39664      4.06671         0.048933      0.016792     -0.068319
O	      6.26049      1.97005      6.25067         0.059264     -0.040279     -0.055671
O	      8.36627      4.17022      6.16906        -0.000798     -0.168851     -0.050653
O	      2.22222      4.57200      4.15373         0.061192      0.032758     -0.017823
O	      4.06892      6.60030      4.19910         0.013702     -0.002671      0.062308
O	      4.26876      4.56658      6.22809        -0.020089      0.184610     -0.007170
O	      6.27429      6.60213      6.22884        -0.035167      0.048285      0.009361
O	      6.29236      4.34071      8.38151         0.033065      0.022538     -0.052066
O	      8.35650      6.59397      8.37723         0.019862      0.015467      0.072206
O	      2.14044      6.63963      6.14108         0.040141     -0.007591      0.078291
O	      4.07366      8.68714      6.11221         0.033152     -0.055128      0.057932
O	      4.16962      6.52458      8.29883        -0.108985     -0.010229      0.035581
O	      6.34585      8.86967      8.28647        -0.066466     -0.007814      0.005803
O	      6.32473      6.46513     10.45715        -0.073634     -0.000102     -0.030168
O	      8.26091      8.72064     10.48914        -0.118002     -0.015678      0.082676
