# total energy = -240.99951988 eV
 
CRYSTAL
PRIMVEC
-0.015269 6.392569 6.271651 
6.277461 0.018924 6.237789 
4.189530 4.243751 0.007974 
PRIMCOORD
36 1
Li	      2.20505      8.48872      6.22937        -0.130888      0.040791     -0.037551
Li	      2.08702      6.44498      8.23504        -0.025655      0.056865     -0.045677
Li	      4.18348      8.44310      8.22764        -0.035554      0.003639      0.060294
Li	      4.18643      6.39710     10.43494         0.028420     -0.011552     -0.076318
Li	      8.38561      4.28708      8.28906         0.085720     -0.044431      0.039905
Li	      8.37917      6.33100      6.24647         0.035655     -0.019809     -0.035291
Li	      4.16683      8.50253      4.33788        -0.039710     -0.027708      0.022015
Li	      6.08384      8.58029      6.27408        -0.025043      0.004088      0.066155
Li	      4.09429      6.59898      6.31351        -0.017536      0.039252      0.013458
Sc	      4.16546      4.33721      8.22990        -0.334961      0.058931      0.035967
V	      6.25451      2.12685      4.15881        -0.122585     -0.002843      0.222485
V	      2.13914      2.19408      4.15355         0.128459      0.206179      0.153985
V	      6.40332      4.24547      6.24293         0.368382     -0.208808     -0.041645
Cr	      4.14462      4.15358      0.07596         0.021324      0.082846     -0.045871
Cr	      2.08716      6.36092      4.25508         0.044912     -0.054799      0.142720
Cr	      6.26143      6.37930      8.31820        -0.067890      0.149065     -0.099159
Fe	      4.18105      4.27786      4.14880        -0.125095     -0.079429     -0.034651
Co	     10.44547      6.37557      8.30732         0.023062     -0.066925     -0.118390
O	      2.03298      2.14789      2.37023         0.040607      0.005614      0.145963
O	      4.19104      4.31332      2.08873        -0.028178      0.010198      0.123342
O	      4.14533      2.24350      4.16362        -0.001419     -0.129083     -0.080641
O	      6.24744      4.31468      4.16899         0.101072      0.005465      0.497401
O	      6.26375      2.16086      6.17622         0.046496     -0.591709     -0.079055
O	      8.37345      4.24441      6.22484        -0.008424      0.035548      0.081062
O	      2.18038      4.20141      4.23916        -0.126851      0.072733     -0.012783
O	      4.18231      6.31806      4.20701         0.006254      0.091061     -0.004165
O	      4.34423      4.22908      6.18713        -0.004798     -0.024023      0.197666
O	      6.31163      6.28723      6.20582         0.038936      0.625596     -0.197263
O	      6.28015      4.32934      8.32068        -0.111635      0.004413     -0.635739
O	      8.32478      6.41650      8.43381        -0.042487     -0.039318      0.037811
O	      1.95897      6.37546      6.21694         0.019371     -0.000922     -0.060701
O	      4.13018      8.61912      6.28716         0.015865     -0.013204     -0.002728
O	      4.27712      6.35818      8.35405         0.040063     -0.083003      0.010910
O	      6.27087      8.39639      8.42568         0.076852     -0.042643     -0.073283
O	      6.33491      6.42868     10.41228         0.015580     -0.064013     -0.052930
O	      8.22961      8.38119     10.39040         0.111679      0.011938     -0.117299
