# total energy = -238.22657228 eV
 
CRYSTAL
PRIMVEC
0.012078 6.396153 6.202807 
6.315379 0.017533 6.197846 
4.227577 4.278069 -0.005970 
PRIMCOORD
36 1
Li	      4.24148      8.49041      8.23557        -0.065138      0.027561      0.048432
Li	      8.43716     10.53342     10.27836        -0.023988     -0.053272      0.000890
Li	      6.43508      8.59842     10.28451         0.006672      0.038592      0.027973
Li	      6.22492      6.45673      4.14620         0.045852      0.013691      0.037960
Li	      4.23897      4.33370      4.17014         0.019369     -0.010356      0.038072
Li	      4.22011      8.50772      4.20342         0.008319     -0.014335     -0.017426
Li	      6.28859      8.50869      6.17275        -0.011407      0.013226     -0.009063
Li	      4.29666      6.46761      6.18640         0.040623     -0.001073     -0.003109
Li	      8.40556      8.63639      8.30225         0.000160      0.009470     -0.051005
Sc	      2.18755      6.43454      4.19959         0.029220     -0.057539      0.073712
V	      2.14891      4.22769      2.15237        -0.006952     -0.043641     -0.034601
V	      6.31272      4.29547      6.07862         0.026833      0.023832     -0.001883
V	      4.17926      2.22697      6.00992        -0.049766      0.012582     -0.118118
Cr	     10.51987     10.63423     12.33496        -0.008210      0.013702     -0.035588
Cr	      6.39193     10.60811      8.30961         0.045231     -0.060914      0.017028
Cr	      0.02000      2.14528      2.09047        -0.017337      0.011481      0.008413
Fe	      6.13592      6.62694      8.33649         0.133622     -0.111730     -0.049965
Cu	      2.22402      8.48467      6.15326        -0.024337     -0.058344      0.004168
O	      2.02537      2.06749      1.96513         0.018422     -0.051150      0.119086
O	      4.23405      4.37330      1.98112         0.068492      0.000209     -0.041847
O	      4.17194      2.16441      4.29027        -0.028962      0.046154     -0.025131
O	      6.35519      4.28417      4.10930        -0.007444      0.008640      0.004698
O	      6.21717      2.10949      6.23866        -0.014824     -0.020783      0.019273
O	      8.44639      4.47595      6.25498         0.006917      0.082527     -0.028059
O	      2.14805      4.27670      4.04592        -0.007708      0.012931      0.133415
O	      4.22601      6.41259      4.06458        -0.014015     -0.015146     -0.010980
O	      4.36623      4.14559      6.22560        -0.017314      0.051388      0.027341
O	      6.43341      6.38687      6.33993        -0.035231      0.017415     -0.071798
O	      6.46571      4.19202      8.14101        -0.072121      0.024759      0.032108
O	      8.49046      6.36518      8.24374         0.009279      0.037467     -0.020393
O	      1.98702      6.26568      6.28468        -0.033373     -0.107528      0.000429
O	      4.15956      8.69858      6.21531         0.126850     -0.064027     -0.008475
O	      4.21274      6.41012      8.24835        -0.168268     -0.016880     -0.007117
O	      6.31684      8.54707      8.29904         0.014200      0.212385     -0.018566
O	      6.34525      6.41215     10.28546         0.005046     -0.038008      0.151511
O	      8.45493      8.49583     10.42414         0.001291      0.066712     -0.191382
