# total energy = -239.07083965 eV
 
CRYSTAL
PRIMVEC
0.012337 6.379316 6.270942 
6.336877 0.018473 6.265218 
4.229522 4.253964 0.007016 
PRIMCOORD
36 1
Li	      0.18632      6.28876      6.21378         0.068654     -0.029598     -0.006211
Li	      2.11862      6.41305      8.22163        -0.006146     -0.031017      0.007424
Li	      6.31663      6.43430      4.26266         0.016802      0.054405      0.024035
Li	      8.30889      6.44255      6.37844        -0.084905      0.027444     -0.002174
Li	      6.32423      4.39170     10.44446        -0.012888      0.020959     -0.035380
Li	      2.12860      6.27712      4.26621         0.008723     -0.039610     -0.097826
Li	      2.11547      4.29390      6.20817         0.012684     -0.022790     -0.024912
Li	      8.52036      8.42975      8.37304         0.016858     -0.077922      0.024462
Li	      6.38851      6.36837      8.33875        -0.001699      0.007612      0.050565
Sc	      6.41030      8.43022     10.51144         0.045999     -0.111857     -0.069740
V	      4.30383      8.49884      8.30140         0.029747      0.065398     -0.091638
V	      2.12722      4.28442      2.13998        -0.042654      0.129593     -0.022126
V	      6.32005      4.32707      6.30490        -0.091380      0.114624      0.170985
Cr	      8.46036     10.64083     10.44558         0.027456      0.043459      0.052665
Cr	      4.22530      4.24537      4.19490        -0.148829      0.075844      0.065599
Cr	      4.20185      6.38555      6.24634         0.123989     -0.061901      0.042436
Fe	     10.50913      6.43138      8.40665         0.049704     -0.064228      0.061226
Ni	      2.15234      8.46037      6.24476         0.032393      0.025032     -0.039061
O	      2.21980      2.24763      2.04868        -0.001312     -0.094930      0.082312
O	      4.23318      4.25757      2.14528         0.055347     -0.035453      0.044955
O	      4.23218      2.13715      4.08248         0.039795     -0.078255     -0.008699
O	      6.34153      4.21528      4.22713         0.026061     -0.038968      0.029168
O	      6.36532      2.22185      6.35367        -0.034297     -0.039040     -0.168362
O	      8.34337      4.25387      6.24127         0.112671      0.055704     -0.101706
O	      2.25133      4.22973      4.08105         0.040538      0.000465      0.091312
O	      4.27037      6.24451      4.17112         0.022367     -0.050867      0.072435
O	      4.27466      4.32691      6.20941        -0.105701      0.029121     -0.067593
O	      6.24417      6.29364      6.31857        -0.017043     -0.006789     -0.087368
O	      6.38292      4.15265      8.37570         0.002581      0.079275     -0.046661
O	      8.55339      6.30825      8.34381        -0.067397      0.010087      0.083042
O	      2.22138      6.42956      6.23624        -0.023950     -0.093211     -0.011158
O	      4.22600      8.41576      6.35488         0.091709      0.031158     -0.018705
O	      4.17579      6.56798      8.35832        -0.003453     -0.062180      0.113858
O	      6.12016      8.55880      8.38755        -0.006736     -0.021819      0.016204
O	      6.22218      6.41982     10.46874        -0.124983      0.069481     -0.034178
O	      8.43639      8.65348     10.42126        -0.050707      0.120773     -0.099186
