# total energy = -242.18847738 eV
 
CRYSTAL
PRIMVEC
0.043446 6.417456 6.242753 
6.357384 0.034445 6.251046 
4.252818 4.298118 0.009154 
PRIMCOORD
36 1
Li	      4.28522     10.44855      6.31936         0.027991      0.013751     -0.021180
Li	      2.38896      8.55913      6.31494        -0.038768     -0.007776      0.018188
Li	      4.26678      8.60046      8.12467        -0.014943      0.009528      0.096649
Li	      2.18161      4.26237      2.04725        -0.011725      0.017813     -0.073915
Li	      8.46784      6.44272      6.33038        -0.002875     -0.002745     -0.000299
Li	      4.29763      8.55137      4.40131        -0.020968      0.007841     -0.027841
Li	      6.13348      8.56425      6.32504        -0.015493      0.029365      0.073168
Li	      4.29274      6.69361      6.30623         0.010954     -0.057439     -0.002466
Li	      6.38364      6.47867      8.26323         0.012342      0.006192      0.008581
Sc	      2.13624      6.36184      4.29422        -0.133632     -0.070362     -0.020531
V	      6.29163      2.15891      4.20262         0.125852     -0.117835      0.008181
V	      2.11628      2.27006      4.18045        -0.005670     -0.047789      0.047842
V	      6.44738      4.37648      6.30108        -0.088007      0.029404      0.090928
Cr	      2.17647      6.43383      8.22784        -0.003346     -0.007657     -0.100487
Cr	      4.33753      6.41078     10.39633         0.107646      0.032266     -0.009165
Cr	      4.26971      4.29935      8.27371         0.043167     -0.051927     -0.093207
Fe	      6.37047      2.12870      8.25509        -0.070246      0.081243     -0.021399
Fe	      4.20911      4.28643      4.20259        -0.001079     -0.000860      0.027761
O	      2.05326      2.05774      2.16909        -0.025571     -0.040400     -0.029558
O	      4.34755      4.39597      2.12487         0.055486     -0.098749     -0.108485
O	      4.28385      2.03892      4.13273        -0.055664     -0.033896      0.010970
O	      6.45472      4.35169      4.15719         0.142642      0.056436     -0.019092
O	      6.38086      2.32948      6.21599         0.019890      0.017172     -0.010649
O	      8.30591      4.32093      6.18347         0.071655      0.004667     -0.031497
O	      2.12180      4.22381      4.13980        -0.031258      0.198380      0.014870
O	      4.25852      6.45430      4.07845         0.047484      0.099453      0.023708
O	      4.49231      4.28180      6.22617         0.077193     -0.049279      0.162158
O	      6.41241      6.32862      6.17381        -0.019657      0.003809     -0.004026
O	      6.32766      4.25438      8.21773        -0.058387      0.004994     -0.083355
O	      8.59831      6.56062      8.37703        -0.056763     -0.008950     -0.076144
O	      2.17799      6.41675      6.27862        -0.019035     -0.035006      0.098798
O	      4.26702      8.58165      6.27135        -0.047212     -0.027521      0.026447
O	      4.21194      6.31308      8.39566        -0.025047      0.023164      0.024401
O	      6.50848      8.70732      8.40416         0.031878     -0.006269     -0.034662
O	      6.33922      6.53558     10.39859        -0.037587     -0.006647      0.013284
O	      8.41681      8.63714     10.32095         0.008754      0.035629      0.022025
