# total energy = -234.89787435 eV
 
CRYSTAL
PRIMVEC
0.020305 6.207249 6.243008 
6.359762 0.004480 6.259078 
4.261784 4.171376 -0.019020 
PRIMCOORD
36 1
Li	     10.42893      4.05222      6.23715        -0.009018     -0.040005      0.015062
Li	      8.62689      8.44501     12.44423         0.012815     -0.064187      0.036760
Li	      8.43436      4.20257      8.18494        -0.024962     -0.025129     -0.002234
Li	      4.18339      4.14171      4.21543        -0.005267     -0.018393      0.063083
Li	      8.41779      6.09906      6.26355         0.020560      0.028747      0.010028
Li	      6.54497      4.25115      6.29655        -0.020715     -0.040531      0.018706
Li	      0.08535      4.17788      4.16298         0.109631     -0.021311     -0.037823
Li	      2.12075      4.11548      6.17193         0.040762      0.016571      0.011412
Li	      4.31613      4.11033      8.32027         0.042273     -0.002471     -0.060591
Sc	      6.31032      2.18565      8.25622        -0.001195      0.069233     -0.019003
V	      2.12661      6.17302      8.26852        -0.053632      0.105065      0.002099
V	      6.39916      2.10061      4.30764        -0.236921      0.089719      0.273189
V	      4.29463      6.14953      6.22979         0.041069     -0.523172      0.023404
Cr	      4.22802      2.11979      2.05790        -0.051862      0.056866      0.017885
Cr	      2.16729      2.15163      4.21459        -0.010070      0.032798     -0.082967
Cr	      2.11876      6.16149      4.18205         0.105937     -0.102619     -0.029719
Ni	      8.54377      4.12907      4.26412         0.021017      0.008764     -0.154616
Ni	      6.45393      6.15159      8.29001        -0.010756      0.014333     -0.043361
O	      2.16248      2.04977      2.17267         0.027479     -0.005580      0.005478
O	      4.41647      4.13450      1.99784        -0.026695     -0.044532      0.046015
O	      4.21976      2.07292      4.10368         0.031140      0.075056     -0.076655
O	      6.45468      4.16863      4.03816        -0.123004     -0.113989     -0.020130
O	      6.26321      2.14276      6.11021         0.069500     -0.062844     -0.354471
O	      8.51752      4.15714      6.20574        -0.044140     -0.033854      0.116984
O	      2.15973      4.13725      4.17200        -0.033439      0.031068      0.002499
O	      4.28691      6.24861      4.19151        -0.014530      0.010935      0.023163
O	      4.25108      4.36027      6.28219         0.002341      0.462738     -0.023422
O	      6.30847      6.25775      6.18398        -0.054591      0.022513     -0.066904
O	      6.34442      4.14567      8.33200         0.042411     -0.145190      0.062474
O	      8.52914      6.22770      8.43070         0.039569      0.028926      0.036028
O	      2.26434      6.20762      6.22544         0.003901      0.070966     -0.011634
O	      4.26529      8.13166      6.33293         0.046244     -0.002484     -0.051128
O	      4.22888      6.27788      8.29661        -0.007012      0.077832     -0.033562
O	      6.25607      8.27261      8.49748        -0.016583      0.026210      0.096427
O	      6.45466      6.29846     10.39265         0.062540      0.151295      0.162696
O	      8.31598      8.22705     10.40611         0.025204     -0.133347      0.044830
