# total energy = -241.80048111 eV
 
CRYSTAL
PRIMVEC
0.015801 6.289442 6.288516 
6.234750 0.016549 6.287525 
4.172273 4.207799 -0.004465 
PRIMCOORD
36 1
Li	      8.25714      2.20175      6.28731         0.007553      0.009405     -0.008060
Li	      2.10720      6.29582      8.36830         0.018556      0.040212     -0.014177
Li	      4.18886      8.38602      8.38358        -0.018909     -0.044213     -0.069331
Li	      8.28163      4.21919      4.24797        -0.007361     -0.036813      0.036626
Li	      4.16119      4.19585      4.21197        -0.007585      0.072206      0.047451
Li	      8.36985      6.26075      6.29340        -0.003380     -0.000946      0.062871
Li	      6.32292      4.16993      6.28350         0.021176     -0.011159     -0.004592
Li	      8.30535      6.35859     10.47816         0.011207      0.010512      0.016844
Li	      4.11340      4.23008      8.35311         0.035142      0.030568     -0.040500
Sc	     10.26007      8.44857     10.46504         0.037475     -0.079239      0.009699
V	     10.36081      6.31966      8.35954        -0.005336      0.046121      0.069669
V	      4.14302      6.24537      6.35270        -0.021432      0.061070     -0.138364
V	      2.24437      1.97833      4.16253        -0.079645      0.199655      0.038471
Cr	     10.37957      4.24372      6.29727         0.100460     -0.089535     -0.016696
Cr	      6.26074      2.19542      4.17936         0.013519      0.009149     -0.028620
Cr	      2.12764      4.19813      6.30242         0.053531      0.032219     -0.063332
Cr	      6.29690      6.31563      8.36519        -0.051304     -0.083490     -0.062871
Ni	      8.36126      4.20796      8.33366         0.004679     -0.027502      0.139008
O	      2.00419      2.10003      2.23314         0.013173     -0.086278      0.052403
O	      4.16775      4.33066      1.99098         0.152519     -0.093378     -0.018582
O	      4.08042      2.14633      4.17284         0.056909     -0.056709     -0.006244
O	      6.23973      4.28126      4.20124         0.012587     -0.255225     -0.026792
O	      6.23714      2.03443      6.22348        -0.003416      0.038253     -0.130785
O	      8.43314      4.18649      6.32002        -0.009449      0.037109     -0.140393
O	      2.05121      4.01604      4.26182         0.009738      0.030444      0.046391
O	      4.27293      6.33925      4.22075         0.099376     -0.017980     -0.062816
O	      4.08033      4.32607      6.27232        -0.021582     -0.221090      0.004843
O	      6.26254      6.35596      6.30695         0.063636      0.016571     -0.032331
O	      6.27742      4.21129      8.38946        -0.106436      0.077069      0.043564
O	      8.35668      6.28326      8.41525        -0.067367      0.111158     -0.000906
O	      2.06060      6.17307      6.27886        -0.156103      0.031804     -0.005208
O	      4.23980      8.40233      6.26459        -0.003595      0.088355     -0.019195
O	      4.31141      6.32790      8.26198         0.039315     -0.008471      0.213757
O	      6.26512      8.31088      8.40457        -0.001064      0.009225      0.098279
O	      6.24571      6.38516     10.44454        -0.030360      0.126544      0.016017
O	      8.25738      8.43113     10.47240        -0.156226      0.034378     -0.006097
