# total energy = -222.42216382 eV
 
CRYSTAL
PRIMVEC
-0.008623 6.367199 6.132553 
6.376992 -0.005032 6.129105 
4.249992 4.241477 -0.001993 
PRIMCOORD
36 1
Li	      6.38121     10.54216      8.18854        -0.006613     -0.016620      0.050657
Li	      4.30363      2.10659      2.11474         0.022620     -0.070429      0.026619
Li	      6.35252      8.48564     10.10612        -0.063755      0.014464      0.039149
Li	     10.46488      6.46244      8.18386         0.003821     -0.006966      0.001334
Li	      2.15022      2.13075      4.03274         0.057819     -0.041060     -0.020051
Li	      8.50850      6.33257      6.21804         0.020915     -0.019080     -0.104515
Li	      6.35392      4.29582      6.22234         0.016680      0.011571     -0.057257
Li	      8.51899      6.33906     10.08287         0.015311     -0.087272      0.061948
Li	      6.52137      6.33288      8.20179        -0.012547      0.025085      0.052241
Sc	      6.39537      8.44563      6.20346        -0.064031     -0.020467     -0.196598
V	      6.35945      0.10707      6.14277         0.074168     -0.089291     -0.171025
V	      2.06389      2.10602      0.04633        -0.045218      0.049374     -0.117708
V	      4.36106      4.11182      4.01414        -0.024612      0.027488      0.009122
V	      4.33706      6.32744      6.16928        -0.019109      0.062668     -0.148150
Co	      4.17500      0.11444      4.02558        -0.017614     -0.286771      0.297276
Cu	      6.37066      4.19246     10.15541         0.068433      0.014244      0.175309
Ni	      8.42350      4.35383      8.18862         0.024311     -0.067436      0.067171
Ni	      8.50488      8.36659      8.25916         0.001601      0.094451     -0.006234
O	      2.16557      2.20681      1.81753         0.011617     -0.088718      0.132594
O	      4.23630      4.19106      1.93303         0.031311     -0.011194     -0.002181
O	      4.23496      2.19536      4.07300         0.015338     -0.297451      0.002492
O	      6.16400      4.28750      4.02394         0.059605      0.039889     -0.005730
O	      6.48698      2.00392      6.13603        -0.069266      0.181963      0.010625
O	      8.58175      4.17619      6.13002        -0.124061      0.105580     -0.564926
O	      2.37028      4.22711      4.07038         0.204727      0.026468      0.041471
O	      4.21283      6.25266      4.27954        -0.015344     -0.004838     -0.062221
O	      4.25939      4.31209      6.05675         0.038072     -0.053705      0.041968
O	      6.22097      6.39423      6.12984         0.029544     -0.116579      0.030608
O	      6.35397      4.22862      8.28756        -0.009069      0.044226     -0.270731
O	      8.49995      6.36491      8.16597         0.001699      0.000804     -0.012092
O	      2.05264      6.44542      6.12405         0.052996     -0.041944     -0.018618
O	      4.22613      8.41640      6.04348        -0.031408      0.076086      0.171221
O	      4.17659      6.32531      8.00986         0.012569      0.105981      0.463061
O	      6.44803      8.47525      8.14927        -0.105324      0.007692      0.102136
O	      6.31506      6.33168     10.45273         0.075841      0.042770      0.028763
O	      8.46660      8.62137     10.35986        -0.231024      0.389016     -0.047729
