# total energy = -222.90270207 eV
 
CRYSTAL
PRIMVEC
-0.036526 6.256168 6.547834 
6.061204 0.018974 6.493384 
4.058134 4.150694 -0.004607 
PRIMCOORD
36 1
Li	      8.06315      8.38980     12.93538         0.011311      0.003501     -0.024722
Li	      8.09162     10.33005     10.85129        -0.039261      0.028810      0.043179
Li	      6.08690      2.11558      4.33153        -0.096882      0.076593     -0.007952
Li	      2.04363      4.17091      2.18739         0.027930      0.017653     -0.023635
Li	      6.05775      6.26242      4.39431         0.009799     -0.012054      0.018706
Li	      6.07735      4.15775      6.45804        -0.015654     -0.021154      0.007237
Li	      6.04153      8.32421      6.53358        -0.016223      0.020435      0.003027
Li	      8.02686      8.42650      8.75710        -0.020475      0.018201     -0.016780
Li	      6.00304      6.22233      8.68666        -0.008491     -0.037347     -0.046830
Sc	      7.99162      6.33947     10.85049         0.026711     -0.090316      0.070564
V	      4.03477      8.29832      8.70512        -0.029773      0.210665     -0.050294
V	      6.10592      2.23794      8.59814         0.024540      0.065200     -0.104074
V	      4.09122      4.11216      4.43352         0.213235     -0.207442     -0.076804
V	      7.97254      6.17010      6.54578         0.023955     -0.087566     -0.060127
Co	      4.05970      6.24865      6.55726        -0.035081      0.077191      0.166149
Cu	      6.05543      6.24690     12.96964        -0.024739      0.007267      0.054272
Cu	      1.99657      6.27282      8.70154        -0.076558     -0.008867      0.021666
Cu	      6.04844      4.23128     10.84759         0.048548      0.026343     -0.045205
O	      2.07636      2.06007      2.19241         0.017495      0.083438      0.029890
O	      4.08009      4.18981      2.36067        -0.060596      0.005454      0.239634
O	      3.99629      2.14865      4.39202         0.009959      0.074020      0.119538
O	      5.88411      4.15846      4.43551        -0.142848      0.000772      0.081590
O	      6.02465      2.01487      6.65072        -0.127361      0.080943      0.118333
O	      8.16627      4.33956      6.48183        -0.044089      0.133640     -0.011021
O	      2.10062      4.19187      4.32311         0.114966      0.084753     -0.000907
O	      4.06893      6.22958      4.23505        -0.045740     -0.143169      0.113816
O	      4.01762      4.03493      6.41921        -0.030977     -0.109561     -0.050199
O	      6.09116      6.23648      6.57497        -0.228140      0.006963      0.058808
O	      6.11095      3.98034      8.57586        -0.012929     -0.079929     -0.058411
O	      8.16892      6.25009      8.56311         0.066231      0.016968     -0.062858
O	      2.00592      6.23376      6.42743         0.382527     -0.063927     -0.150345
O	      4.00551      8.37320      6.78018         0.007536     -0.013425      0.168233
O	      3.94625      6.34935      8.64490         0.162047     -0.111081     -0.378816
O	      5.84858      8.39785      8.79238        -0.041290     -0.073069      0.014770
O	      6.00473      6.18637     10.71735         0.048230      0.112544     -0.138126
O	      8.12408      8.35826     10.82810        -0.097913     -0.092449     -0.022306
