# total energy = -92.17494728 eV
 
CRYSTAL
PRIMVEC
-2.138086 4.255595 -2.135137 
2.111039 4.228367 2.107931 
2.164977 0.013581 -6.405057 
PRIMCOORD
16 1
Li	      0.09066      4.38310     -4.49772         0.334268     -0.019172      0.204703
Li	      2.15728      6.56167     -4.38271        -0.091787     -0.313389      0.102560
Li	     -0.04368      4.36890     -0.10724        -0.174652      0.026431      0.450959
Li	      2.21260      2.19293     -4.39978        -0.018403      0.317930      0.008138
Mn	      0.09159      0.12967     -0.09038        -2.200608     -0.046950      1.074580
Mn	     -0.00216      6.56219     -2.22647         0.690404     -1.262055      0.079517
Ni	      0.01618      2.19464     -2.21659         0.285868      0.431198     -0.011710
Ni	      2.22543      4.37239     -2.25065        -0.077264      0.060881     -1.099839
O	      0.00695      4.39418     -6.75761         0.295662     -0.044834      0.891595
O	     -0.07984      2.29636     -4.29024        -0.962284     -0.641705      0.389126
O	      2.36682      4.37681     -4.40359         0.531398      0.051055      0.351431
O	      2.16123      4.25583      0.05485        -0.064437      0.054165     -1.132586
O	      2.15385      2.21820     -2.06247        -0.717595      0.811172      0.688738
O	      0.02240      6.68831     -0.14049         0.659189     -0.520710     -1.152254
O	     -0.08477      4.48585     -2.18847         0.688224      0.416943      0.183636
O	      0.11573      2.05438     -0.04887         0.822016      0.679038     -1.028595
