# total energy = -221.92738738 eV
 
CRYSTAL
PRIMVEC
0.005081 6.255519 6.289962 
6.237037 -0.000409 6.295056 
4.169608 4.185416 -0.011972 
PRIMCOORD
36 1
Li	      6.22258      6.22689     12.53131        -0.042381     -0.053703      0.009746
Li	      2.29995      6.33621      8.42671        -0.048223     -0.000497      0.059602
Li	      4.08790      8.15594      8.36858        -0.020368      0.123151     -0.015860
Li	      4.24653      6.21046     10.26116         0.086332     -0.036298      0.065548
Li	      4.17714      6.27039      2.10440         0.083867     -0.060352      0.194202
Li	      6.18784      4.30280     10.45296         0.025144     -0.037511      0.011258
Li	      4.20407      6.23104      6.49194        -0.068781     -0.049510     -0.134552
Li	      4.32065      4.38063      8.36569         0.016313     -0.060922     -0.037531
Li	      6.07125      6.14438      8.45832        -0.002197      0.010728      0.058857
Sc	      6.26718      8.30730     10.37238        -0.028754      0.215427     -0.262697
V	      2.16561      8.20576      6.28700         0.290420      0.009395      0.016313
V	      2.05862      4.14808      2.09189         0.709041     -0.407470      0.288453
V	      8.34801      6.27210      6.33666        -0.152871      0.234370     -0.026143
V	      6.12459      8.33423      6.41242         0.290721      0.175236     -0.262361
Co	      4.15672      4.30024      4.16351         0.178384     -1.010641      0.011427
Ni	      2.06650      2.05262      4.14757        -0.370307      0.080637     -0.139860
Ni	      6.22305      4.20693      6.30575        -0.087865      0.006353     -0.026423
Ni	      8.32657      6.29649     10.40382         0.418218     -0.018643      0.059052
O	      4.17887      6.24428      8.40120         0.030737      0.032420      0.006964
O	      2.06319      2.13405      2.00919         0.010159     -0.117012     -0.244394
O	      3.91524      4.12797      2.18838        -0.362641     -0.003513     -0.419118
O	      4.15329      2.18137      4.32227         0.158429     -0.020168      0.754011
O	      6.17361      4.21042      4.25589        -0.194953      0.105015     -0.088318
O	      6.32262      2.12298      6.23156        -0.697883     -0.063795      0.038546
O	      8.32642      4.09684      6.39003        -0.026417      0.137095     -0.090668
O	      2.07229      4.17624      4.25898         0.096784      0.125161      0.224967
O	      4.15648      6.13405      4.18610        -0.015638      0.577130     -0.036764
O	      4.06119      4.08527      6.27724        -0.133666     -0.184784      0.327246
O	      6.28956      6.38176      6.23120         0.542329     -0.197433      0.236735
O	      6.42331      4.15358      8.35668        -0.179311      0.110506      0.030359
O	      8.35552      6.15901      8.30404        -0.086544      0.206109     -0.943428
O	      2.06085      6.35940      6.27905        -0.051810     -0.013815      0.167637
O	      4.16549      8.35035      6.26888        -0.108781      0.009314     -0.009185
O	      6.22618      8.42403      8.17744        -0.059348     -0.012042      0.122561
O	      6.31779      6.34193     10.45498        -0.162626     -0.021640     -0.032559
O	      8.35526      8.35191     10.62753        -0.035510      0.211699      0.086376
