# total energy = -225.75990733 eV
 
CRYSTAL
PRIMVEC
0.015355 6.258941 6.278110 
6.195364 0.004881 6.288874 
4.151952 4.202445 -0.019140 
PRIMCOORD
36 1
Li	      6.22531      0.13766      6.21453        -0.129948     -0.035699      0.074998
Li	      8.08703      2.01359      6.23099        -0.031735      0.088837      0.024460
Li	      6.25729      2.05124      4.29388        -0.000516     -0.020750     -0.025497
Li	      6.20022      6.31313      4.29079         0.027660     -0.024893      0.012190
Li	      6.16302      4.17672      6.31617        -0.021246      0.000218      0.130511
Li	      2.06328      6.29825      4.25909         0.012217      0.018202     -0.093031
Li	      4.21490      6.20313      6.19842         0.156763      0.058629      0.016467
Li	      8.27030      8.31583      8.33541         0.014529     -0.000673      0.033557
Li	      6.34591      6.27964      8.33016         0.044848     -0.024499     -0.027889
Sc	      4.15167      8.31975      8.25343        -0.064286      0.101833      0.047497
V	      8.31470      4.14977      4.27569        -0.072317      0.054955     -0.103437
V	      0.04616      4.14672      4.15768         0.103162     -0.119572      0.178070
V	      2.06621      6.25020      8.30683        -0.028827     -0.110866     -0.008281
V	      4.12462      4.24527      4.21799         0.014702     -0.150818     -0.099160
Co	      4.12574      2.13891      6.26545        -0.091245      0.072327     -0.132084
Co	      6.26930      8.33246      6.30348        -0.021313      0.122732     -0.031624
Cu	      6.14893      2.15757      8.26229         0.020557     -0.052338      0.016478
Cu	      8.24243      4.22597      8.27673        -0.016782      0.055482     -0.015951
O	      2.03374      1.99406      1.96669         0.096572      0.079390      0.060404
O	      4.20138      4.10368      2.12695        -0.028288     -0.163826     -0.025732
O	      4.14404      2.12713      4.19881         0.005842     -0.008185      0.060257
O	      6.19128      4.19870      4.00284         0.008323     -0.063446     -0.038923
O	      6.08174      2.13132      6.29764        -0.134291      0.046267     -0.063534
O	      8.18704      4.36826      6.07432        -0.018376      0.126314     -0.005081
O	      2.13214      4.19729      4.39716         0.004936      0.000673      0.107621
O	      4.13689      6.25217      4.11833         0.009237      0.154587      0.161966
O	      4.07066      4.09338      6.27858        -0.032617     -0.014657     -0.008762
O	      6.33381      6.43057      6.28987         0.107111     -0.003342      0.037577
O	      6.29611      4.28054      8.61183        -0.018967      0.164126     -0.193793
O	      8.34587      6.24970      8.15890        -0.004250      0.037660     -0.038277
O	      2.10932      6.16655      6.46743        -0.009441     -0.133380     -0.074519
O	      4.29531      8.29912      6.19385         0.082100      0.002303      0.045379
O	      4.04532      6.27461      8.56319         0.060088     -0.013637      0.059709
O	      6.23213      8.44557      8.28282         0.002647     -0.158317     -0.010055
O	      6.10797      6.17728     10.52243         0.052002     -0.023102     -0.052010
O	      8.37035      8.49180     10.54087        -0.098852     -0.062536     -0.019501
