# total energy = -225.96928096 eV
 
CRYSTAL
PRIMVEC
-0.020449 6.282098 6.269137 
6.461317 -0.025752 6.274829 
4.294674 4.178688 -0.004140 
PRIMCOORD
36 1
Li	      6.36383      6.29663     12.36937        -0.019215      0.004201     -0.045647
Li	      2.29337      6.25590      8.37964         0.083657     -0.062569      0.051602
Li	      4.32745      8.14778      8.38942         0.045218      0.033689      0.083339
Li	      4.46442      6.23871     10.38310        -0.035023      0.095242     -0.024992
Li	      6.49869      8.17717     10.39481         0.004374      0.047941     -0.015914
Li	      8.59397      6.08880      6.30703         0.051884      0.036534     -0.116814
Li	      6.59424      4.22388      6.28637         0.039085     -0.049062     -0.000806
Li	      8.35544      6.34338     10.41543         0.006624     -0.003932      0.014909
Li	      6.27543      6.23097      8.50159        -0.085878      0.001660      0.023600
Sc	      8.66392      8.39861     12.47769         0.146250     -0.014819     -0.152773
V	      6.38185      2.11080      8.27278         0.195435     -0.007359      0.424670
V	      6.37426      8.44630      6.37481        -0.063404      0.209400     -0.334457
V	      2.21693      2.04694      4.19721        -0.232984     -0.001806     -0.123903
V	      4.34617      4.15320      4.17484        -0.097392     -0.250918      0.063625
Co	      6.40001      4.33703     10.44330        -0.041873     -0.258922      0.108542
Co	      8.57288      8.38068      8.44188         0.216152      0.310547     -0.051504
Ni	      8.55456      4.22968      8.34173        -0.032488     -0.055632      0.162284
Ni	      4.27978      6.27828      6.33817        -0.029781      0.005886     -0.254757
O	      2.05757      2.10576      2.19835         0.006007      0.018202      0.302460
O	      4.17344      4.29477      2.33013         0.054703      0.049449     -0.122302
O	      4.13865      2.18685      4.12177         0.217138      0.103727      0.071339
O	      6.26923      4.27131      4.22800         0.080669     -0.031744      0.008962
O	      6.55115      2.02765      6.49272         0.048741     -0.036266     -0.158719
O	      8.60917      4.11531      6.34073        -0.002283     -0.016731     -0.138732
O	      2.19964      4.09920      4.26125         0.217212     -0.004396      0.010349
O	      4.47137      6.23469      4.09071        -0.218987      0.235109     -0.057306
O	      4.12137      4.21507      6.08875         0.082787     -0.034960     -0.041849
O	      6.37647      6.36323      6.07099         0.087521     -0.088131     -0.126413
O	      6.47081      4.05904      8.38474        -0.135609      0.181655      0.142266
O	      8.79757      6.28152      8.37351        -0.269445      0.137994     -0.006538
O	      2.18881      6.18861      6.24896        -0.103798      0.090237      0.033928
O	      4.37536      8.36434      6.27872        -0.061640      0.174251     -0.170796
O	      4.28026      6.21194      8.30898        -0.076613     -0.251987      0.238940
O	      6.46235      8.31564      8.13747        -0.054575     -0.096975      0.145951
O	      6.43615      6.27230     10.42722         0.043890     -0.426263     -0.031031
O	      8.58379      8.33962     10.48280        -0.066357     -0.043254      0.088489
