# total energy = -228.83734477 eV
 
CRYSTAL
PRIMVEC
0.007084 6.327127 6.175282 
6.284217 -0.005104 6.187235 
4.205703 4.242435 -0.019155 
PRIMCOORD
36 1
Li	      4.25630     10.48275      6.20196        -0.018820      0.016948      0.027217
Li	      2.15009      2.15551      0.01225         0.020082      0.025481     -0.027710
Li	      6.20160      4.25292      1.96598        -0.015803      0.017295     -0.008165
Li	      4.20831      2.24477      1.98303         0.003284      0.058792     -0.055426
Li	      8.45398      4.23322      8.13866         0.051742     -0.001600      0.000894
Li	      8.35686      6.24262      6.18276         0.003937     -0.017101      0.024298
Li	      2.04555      6.29359      4.18247        -0.055296      0.036552     -0.020922
Li	      2.01877      4.32582      6.17288         0.036793     -0.000922     -0.034409
Li	      6.33781      6.33233      8.22732        -0.007465     -0.002895      0.016616
Sc	      4.06750      6.39548      6.23073         0.017416      0.011171      0.212940
V	      6.24299      2.03735      8.13190        -0.068398     -0.125378      0.040183
V	      2.18938      2.13891      4.09015         0.037546      0.049561      0.103965
V	      6.31691      4.34138     10.34881        -0.067346      0.134983     -0.039043
V	      8.26695      8.44182      8.20402         0.206678      0.042691      0.100953
Co	      8.39145      4.24127      4.11281         0.114090     -0.253982      0.087129
Co	      6.27535      2.06555      4.18631         0.199419     -0.079869     -0.000893
Co	      4.18785      4.22159      4.12328         0.129820     -0.174910      0.164239
Ni	      6.38365      4.24993      6.19983        -0.124047     -0.056561      0.016338
O	      1.98355      2.07491      2.22513         0.072698      0.040527     -0.031014
O	      4.17118      4.36441      2.12738        -0.025098      0.135128     -0.210537
O	      4.16797      1.98921      4.05645        -0.166677      0.214206     -0.014165
O	      6.36129      4.22157      4.12311         0.157426      0.137406     -0.077212
O	      6.31982      2.14549      6.34377        -0.019358     -0.106609     -0.182181
O	      8.35694      4.23989      6.03278         0.182222      0.004212     -0.136845
O	      2.13717      4.09687      4.12165        -0.233030     -0.066492     -0.060715
O	      4.30484      6.46947      4.04123        -0.046780     -0.162823     -0.010142
O	      4.27714      4.23009      6.22513        -0.020910      0.049676      0.055811
O	      6.27863      6.29066      5.95452         0.077037      0.058424     -0.054271
O	      6.17258      4.13132      8.30216         0.007268     -0.004191      0.121617
O	      8.51184      6.44385      8.27882        -0.039857     -0.027883     -0.004444
O	      2.13393      6.34009      6.13509        -0.033279     -0.019094      0.023707
O	      4.23025      8.42500      6.10972        -0.049786      0.091232      0.000450
O	      4.23753      6.18412      8.29505         0.001130     -0.005497      0.041592
O	      6.49032      8.37470      8.22608        -0.290220     -0.059244      0.113772
O	      6.15997      6.30536     10.29960        -0.092548     -0.058229     -0.034332
O	      8.38849      8.60337     10.22754         0.056132      0.098996     -0.149295
