# total energy = -230.52984301 eV
 
CRYSTAL
PRIMVEC
0.017073 6.398642 6.263304 
6.290548 0.018445 6.261171 
4.197384 4.267713 0.009080 
PRIMCOORD
36 1
Li	      0.15006      6.35634      6.25995         0.015063     -0.031156      0.025570
Li	      2.13558      8.37942      6.27659         0.015584     -0.051257     -0.005752
Li	      4.20104      8.54096      8.27055        -0.010298     -0.025535      0.003971
Li	      4.25024      6.40637     10.42054         0.005763      0.002118     -0.001388
Li	      2.07392      2.22765      4.14443        -0.035749      0.023767     -0.044526
Li	      4.18924      2.18271      6.24836         0.039193     -0.023339      0.011763
Li	      2.11241      6.38445      4.37145        -0.000397     -0.020945     -0.037849
Li	      2.14026      4.38107      6.24231        -0.012233      0.088467     -0.011167
Li	      4.06810      6.41211      6.21940        -0.059026     -0.004252      0.017550
Sc	      6.26756      4.31425      6.15238         0.073588      0.026914      0.056734
V	      6.30404      8.46662     10.48119         0.035008     -0.096205     -0.007502
V	     10.49000      6.41296      8.35443        -0.100811      0.004600      0.099668
V	      2.18158      4.22364      2.06586        -0.071331      0.160963      0.022731
V	      6.20770      6.46583      8.29008         0.196105     -0.076921      0.020947
Co	      2.15297      6.43129      8.26879        -0.004207      0.034384     -0.045402
Co	      4.14577      4.28458      4.24761        -0.039712      0.010873     -0.000811
Co	      4.17124      8.50585      4.38416         0.050206     -0.043538     -0.006038
Co	      8.36446      8.53252      8.32815        -0.050175     -0.037752      0.022411
O	      2.01746      2.23623      2.10099         0.071866     -0.054293     -0.016250
O	      4.12077      4.31803      2.14116         0.033024     -0.040387     -0.001498
O	      4.45472      2.18570      4.19555        -0.021645     -0.002208      0.012912
O	      6.34738      4.18189      4.12631        -0.032074     -0.003155     -0.051833
O	      6.31344      2.20199      6.24929         0.008856     -0.025362     -0.007522
O	      8.36012      4.29604      6.49595         0.002768     -0.004642     -0.048922
O	      2.02537      4.24949      3.98817         0.012156     -0.001596      0.029629
O	      4.17744      6.44304      4.06014         0.050686      0.067667      0.029432
O	      4.23940      4.27853      6.27985        -0.032910      0.036171      0.006923
O	      6.35688      6.39719      6.43542         0.041077     -0.033564     -0.041184
O	      6.34262      4.33313      8.39099        -0.061964     -0.020495      0.006286
O	      8.38780      6.33336      8.33502         0.098660      0.032926     -0.004276
O	      2.11578      6.37660      6.36012        -0.005952     -0.002701      0.075306
O	      4.19455      8.55355      6.12803        -0.001580     -0.010614     -0.073874
O	      4.35991      6.37604      8.38409        -0.175370      0.053830      0.033909
O	      6.27972      8.40785      8.44519        -0.012167      0.096275     -0.061017
O	      6.30694      6.46240     10.31170        -0.026586     -0.017504      0.009411
O	      8.25767      8.54419     10.40376         0.004582     -0.011532     -0.018343
