# total energy = -220.79574392 eV
 
CRYSTAL
PRIMVEC
-0.023503 6.382099 6.528012 
6.040760 0.007232 6.496863 
4.056248 4.262468 -0.023437 
PRIMCOORD
36 1
Li	      4.05009      2.19952      2.34938         0.008004      0.040547     -0.055153
Li	      3.97177      0.20989      4.38891         0.039117     -0.042047      0.015287
Li	     10.01324      6.34252      8.67212        -0.019458     -0.065851      0.037352
Li	      2.05669      4.27097      2.23584        -0.009352      0.026796      0.000227
Li	      4.02358      4.21090      4.54304        -0.027425      0.049432     -0.063937
Li	      3.98475      2.35223      6.32961        -0.016317      0.023976      0.045269
Li	      2.15637      4.16907      6.40461        -0.005177     -0.007219     -0.029596
Li	      4.04601      6.14671      6.38494         0.004655      0.060576     -0.038193
Li	      4.03066      4.22236      8.36149        -0.016806      0.004616      0.077859
Sc	     10.07722      8.44168     10.74217        -0.034120      0.040348     -0.002126
V	      4.01461      4.24631      0.05852         0.000358     -0.090619     -0.079799
V	      2.00825      2.13613      0.04363         0.137391     -0.044480     -0.070414
V	      2.19039      6.33285      8.73320        -0.104462      0.201185     -0.032782
V	      6.14830      6.44604      8.58345         0.053455      0.036098     -0.047143
Cu	      5.96205      2.16959      4.33693         0.085863      0.045921      0.010733
Cu	      2.05433      2.15333      4.31685        -0.139124      0.057826      0.000656
Cu	      2.07953      6.24714      4.38003         0.073191     -0.038325     -0.135463
Ni	      5.98914      4.33105      6.55768         0.143488     -0.000199      0.013073
O	      2.02443      1.97043      1.89503        -0.013718      0.033803     -0.028737
O	      4.12455      4.28728      1.86938         0.039412     -0.092912      0.073920
O	      4.00907      2.15220      4.32190        -0.093915      0.040884     -0.019447
O	      6.04975      4.44510      4.09723         0.016642      0.078650      0.035191
O	      6.05457      2.03949      6.43850        -0.141196     -0.040977     -0.078823
O	      8.07759      4.10105      6.49500        -0.005985      0.088554     -0.033234
O	      2.01625      4.16738      4.29036         0.131567     -0.170109      0.041170
O	      4.04075      6.39854      4.25588         0.177760     -0.074456     -0.008837
O	      4.07062      4.25886      6.48092        -0.185533     -0.006378     -0.030722
O	      5.99459      6.41760      6.74521        -0.003477      0.026190      0.114921
O	      6.02436      4.46885      8.67866        -0.051393     -0.030067      0.092167
O	      7.90916      6.46357      8.71247         0.053493      0.002121     -0.001653
O	      1.95106      6.43753      6.68355         0.086657     -0.078915      0.122530
O	      3.94464      8.67723      6.41229         0.067379     -0.033739     -0.011126
O	      3.98441      6.39992      8.74417         0.016601      0.020098      0.024828
O	      6.04903      8.60151      8.83217        -0.066684     -0.168098     -0.044291
O	      6.08549      6.28767     10.99920        -0.210055      0.058584      0.064273
O	      7.97768      8.36476     11.13387         0.009168      0.048185      0.042018
