# total energy = -221.32635646 eV
 
CRYSTAL
PRIMVEC
0.049565 6.444941 6.503653 
6.243076 0.054980 6.500612 
4.139667 4.272011 0.058309 
PRIMCOORD
36 1
Li	      8.35830      8.64416     12.90081        -0.045947      0.100781      0.104433
Li	      6.28091     10.68925      8.75070        -0.044535      0.052603     -0.004618
Li	      0.04967      2.08722      2.10788        -0.003658      0.020310     -0.168651
Li	      4.19270      2.18990      6.46733         0.044261     -0.147369      0.083868
Li	      6.29236      4.26756      6.51744         0.104246     -0.042611      0.120472
Li	     10.26836      8.63974     10.98433         0.094719      0.007982     -0.030640
Li	      6.24671      8.55260      6.64010         0.001526     -0.087514     -0.017475
Li	      8.24556      8.64620      8.85134         0.113456     -0.026301     -0.053706
Li	      6.28497      6.52534      8.71176         0.080782     -0.055636     -0.081728
Sc	      4.27115      8.63840      8.71388        -0.161841      0.130427     -0.089646
V	      6.27031      6.51274     12.93390        -0.481990      0.248882      1.062115
V	      8.15188      4.42828      8.69934        -0.085478     -0.608057      0.046297
V	      6.18252      6.42719      4.44112         0.020052      0.558708     -0.187867
V	      4.10488      6.23396      6.56329         0.377176     -0.012038      0.212532
Cu	      8.35102     10.67083     10.88644        -0.175119      0.076472      0.014472
Cu	      6.31392      8.58474     10.84084        -0.105128      0.059614      0.065208
Cu	      4.25093      4.30113      4.36526        -0.092022      0.014500     -0.046522
Cu	      8.27411      6.61871     10.77021         0.052888     -0.062180     -0.185833
O	      8.25819      8.72209     10.84600         0.063451     -0.082024      0.040799
O	      2.07752      2.30617      2.33705         0.092481     -0.307171      0.121393
O	      4.13182      4.27920      2.01852         0.136219     -0.084026      0.096339
O	      4.15725      2.02304      4.36261        -0.022630     -0.011134      0.044358
O	      6.27781      4.57787      4.36289        -0.086564     -0.185262     -0.010068
O	      6.26194      1.95867      6.41157         0.039548     -0.273774     -0.093315
O	      8.39768      4.29055      6.82039         0.311610      0.041233     -0.744660
O	      2.22272      4.10618      4.12472         0.282831     -0.072910      0.599866
O	      4.25745      6.60389      4.61196        -0.238443     -0.091786     -0.001342
O	      4.18856      4.48285      6.55304        -0.031440     -0.035432     -0.064966
O	      6.07130      6.52559      6.40117        -0.086716     -0.025089      0.007393
O	      6.41296      4.32672      8.63775        -0.387533      0.026082      0.049758
O	      8.34624      6.22267      8.75730         0.027662      0.812033      0.334628
O	      2.28166      6.45415      6.45773        -0.221583      0.048389     -0.208851
O	      4.23417      8.76487      6.62398         0.075245      0.152241     -0.101327
O	      4.21048      6.52963      8.35956        -0.022869     -0.002909     -0.064195
O	      6.27674      8.59106      8.83792         0.062324      0.031010     -0.026521
O	      6.17115      6.32447     11.05587         0.313022     -0.168044     -0.821997
