# total energy = -224.41862066 eV
 
CRYSTAL
PRIMVEC
-0.002808 6.204348 6.199754 
6.726476 -0.012789 6.210549 
4.456519 4.117698 0.016998 
PRIMCOORD
36 1
Li	      2.22664      0.12835      2.02159        -0.042658     -0.007547     -0.010733
Li	      4.18847      2.03942      2.03633         0.003502     -0.059213     -0.047544
Li	      0.25147      2.11105      2.18052         0.047426      0.040579     -0.035249
Li	      2.28589      3.94905      2.14189         0.059732      0.053029     -0.014342
Li	      6.44626      6.18655      3.94621        -0.017197     -0.014977      0.044456
Li	      8.95209      6.17680      6.30685        -0.003779     -0.041011      0.005397
Li	      4.63018      8.00634      4.11493         0.046794      0.004056      0.019538
Li	      2.52027      6.13509      4.10216         0.006922      0.018794      0.017523
Li	      4.55805      6.18001      6.04779         0.034700      0.055089      0.014076
Sc	      2.21344      4.12626      6.07909        -0.003209      0.000128     -0.052859
V	      4.49289      4.10069      0.17876        -0.026975     -0.044043      0.026891
V	      6.61292      2.13377      4.18744         0.071648     -0.011277      0.132812
V	      8.92552      8.17524      8.27348        -0.021275      0.009929     -0.109403
V	      6.70802      6.15421      8.33022        -0.127185     -0.045322     -0.002466
Fe	      8.88579      4.16517      4.23050         0.082310      0.016147     -0.047392
Cu	      2.29917      8.20309      6.26351        -0.035497      0.001827     -0.069342
Cu	      6.67603      4.13085      6.27036         0.009241     -0.022492      0.025542
Ni	      4.35656      4.20309      4.07851         0.050824     -0.114213     -0.008399
O	      2.26665      2.02316      1.97986        -0.018647      0.011624      0.050968
O	      4.44217      4.16632      1.94310        -0.022062     -0.028420     -0.075940
O	      4.75441      2.11245      4.04995         0.055911     -0.060749      0.000104
O	      6.84917      4.11373      4.26974        -0.022651     -0.012723     -0.039405
O	      6.61662      2.06948      6.10557        -0.069148     -0.124120     -0.115857
O	      9.19064      4.05147      6.15167         0.162385      0.059399      0.110583
O	      2.33039      4.06756      4.10880        -0.108482     -0.008550      0.067446
O	      4.48278      6.12434      4.14127         0.005328      0.169794     -0.040449
O	      4.33706      4.14435      6.32250        -0.153833      0.022364      0.090401
O	      6.70857      6.12711      6.37384        -0.002383      0.147196      0.028043
O	      6.47201      4.09332      8.25191        -0.001153      0.020149     -0.007829
O	      8.72970      6.34631      8.36035         0.084307      0.044824      0.062161
O	      1.98759      6.23556      6.15278        -0.090178     -0.055491      0.028066
O	      4.59567      8.37957      6.17582         0.141603      0.044407      0.030925
O	      4.62508      6.06416      8.41449        -0.015773     -0.089215     -0.010608
O	      6.87612      8.28762      8.35869         0.016687     -0.008464      0.005370
O	      6.58048      6.33764     10.38887        -0.038060      0.049865     -0.051630
O	      8.67953      8.32368     10.34641        -0.059174     -0.021373     -0.020855
