# total energy = -225.30291279 eV
 
CRYSTAL
PRIMVEC
0.001125 6.216188 6.124178 
6.725631 -0.003649 6.129422 
4.460570 4.123327 0.021938 
PRIMCOORD
36 1
Li	      6.67070      4.10578      2.10764        -0.008022      0.029645     -0.042261
Li	      8.72507      4.16119      4.17410        -0.029859     -0.033079     -0.010842
Li	      6.73939      2.15016      8.07500         0.000386      0.012665     -0.021673
Li	      8.93091      4.10546      8.10520         0.032723      0.010099     -0.002401
Li	      6.78362      6.12083      4.17323         0.000902      0.020360     -0.094727
Li	      8.73608      6.12660      6.15409         0.028435     -0.049195      0.004791
Li	      6.67099      4.18888      6.18748        -0.053544     -0.125758     -0.018701
Li	      4.67231      6.16111      6.16944        -0.017414      0.005818      0.024315
Li	      4.64079      4.21727      8.08674         0.086172      0.015183      0.045817
Sc	      0.10811      4.10416      4.01206        -0.008882     -0.000809      0.067809
V	      4.43640      4.16292      0.09350        -0.051710      0.090294      0.050018
V	      4.32947      8.09287      8.21920        -0.190882      0.050936      0.005597
V	      4.56841      4.09050      4.19039        -0.128583      0.046454     -0.045163
V	      9.06548      6.22006     10.07132        -0.033272      0.056577      0.068369
Fe	      8.90988      2.13075      6.18374         0.091064      0.050416     -0.077059
Cu	      6.71269      2.10494      4.09086        -0.085830     -0.077135     -0.049194
Cu	      6.75368      8.26088      6.21210        -0.039076      0.020402      0.095268
Cu	      6.70022      6.20250      8.11432         0.053332     -0.268583      0.143038
O	      6.69203      6.30761      6.19042        -0.030585      0.035092     -0.100314
O	      2.35415      2.05944      2.00497         0.053877      0.007521      0.133367
O	      4.44799      3.99484      2.10473         0.077444      0.001911      0.050015
O	      4.33055      2.13873      4.03511        -0.160616     -0.091957      0.007273
O	      6.46304      4.05384      4.09943         0.058798      0.085465     -0.060278
O	      6.94022      2.06059      6.06649        -0.061646      0.133981      0.181172
O	      9.18205      4.11479      6.09511        -0.066205      0.058581     -0.075493
O	      2.29298      4.23116      4.13241         0.059691     -0.093200     -0.126290
O	      4.34919      6.12447      4.08338         0.055496      0.013403     -0.004573
O	      4.51892      4.13661      5.96847         0.125357      0.003115      0.110969
O	      6.76604      4.22586      8.16945         0.055262     -0.076160     -0.091855
O	      9.06069      6.24835      8.32088         0.062759     -0.010551     -0.110617
O	      2.06541      6.18853      6.03380        -0.001093     -0.085886     -0.023763
O	      4.29765      8.28059      6.21015        -0.139274     -0.109385     -0.018388
O	      4.30336      6.31435      8.22647        -0.057623     -0.025430      0.014939
O	      6.41285      8.18348      8.21581         0.129997      0.187116      0.044336
O	      6.97705      6.23863     10.22193         0.045126      0.051574     -0.017806
O	      9.17776      8.18582     10.27427         0.147296      0.060520     -0.055694
