# total energy = -220.63825867 eV
 
CRYSTAL
PRIMVEC
0.013400 6.346906 6.285303 
6.187806 0.010331 6.287464 
4.129759 4.237004 0.002777 
PRIMCOORD
36 1
Li	      4.21014      4.17501      0.21822        -0.000455     -0.018613     -0.112555
Li	      2.08623      8.36502      6.36552        -0.048627     -0.059972      0.012414
Li	      6.03301     10.53841      8.20642         0.006951     -0.005026      0.001968
Li	      4.17728      8.66291      8.21119        -0.016788      0.074558      0.032044
Li	      2.21591      4.23953      2.00770        -0.084962     -0.004091     -0.065026
Li	      4.10896      4.27848      4.06258         0.035187     -0.014510     -0.039936
Li	      4.14918      2.12109      6.30074        -0.006904     -0.003924     -0.012218
Li	      2.06964      4.38802      6.33094         0.044967     -0.060709     -0.007792
Li	      4.10370      4.25379      8.30502        -0.013426      0.025293      0.000023
Sc	      4.09317      8.48424      4.30476         0.020632     -0.004913     -0.003655
V	      6.14620      2.16357      4.17790        -0.070056      0.005105      0.006995
V	      2.13396      2.17817      4.07227         0.033059     -0.016287      0.166425
V	      6.18214      4.19077      6.34588        -0.019560      0.009424     -0.043973
V	      6.23227      6.42288      8.30079         0.045402      0.006466      0.006056
Ni	      8.23462      4.24732      4.21479         0.069734     -0.004478     -0.068320
Ni	     10.23886      6.24092      8.33120         0.024965      0.147177     -0.002576
Ni	      2.10224      6.26929      4.27323        -0.031008      0.006168     -0.039486
Ni	      4.07408      6.37005      6.35637         0.091222      0.019870      0.042980
O	      2.07883      2.04283      2.33545         0.046662     -0.004080     -0.171430
O	      4.11040      4.29650      2.09652        -0.029244     -0.140693     -0.016257
O	      4.20467      2.09937      4.20415         0.026092      0.069086      0.011243
O	      6.20602      4.20637      4.26339        -0.111715     -0.030972      0.009186
O	      6.14284      2.22329      6.21473         0.019263     -0.041036     -0.102646
O	      8.04505      4.25103      6.22460         0.052686     -0.017936      0.157408
O	      2.05980      4.08194      4.24749        -0.016799      0.002356     -0.007823
O	      4.22610      6.39698      4.16306         0.034643      0.032870      0.062958
O	      4.33709      4.31063      6.29192        -0.018462     -0.109301      0.026277
O	      6.22032      6.29107      6.28247         0.087594      0.026290     -0.035108
O	      6.21306      4.27456      8.33381         0.020800     -0.024731      0.092714
O	      8.11901      6.35038      8.47158        -0.068188      0.017679     -0.076540
O	      2.11148      6.32183      6.22722        -0.170527      0.032691      0.142229
O	      4.09050      8.43619      6.25059         0.018088      0.146968     -0.024015
O	      4.38879      6.32898      8.43414         0.015083     -0.041545      0.011664
O	      6.21381      8.37756      8.49693         0.011865      0.053799      0.011177
O	      6.19996      6.43884     10.38846         0.009638     -0.009663      0.031441
O	      8.08735      8.47640     10.47424        -0.007812     -0.063321      0.004154
