# total energy = -239.61674937 eV
 
CRYSTAL
PRIMVEC
0.005202 6.338134 6.419620 
6.244216 0.017838 6.406604 
4.161446 4.215611 0.013309 
PRIMCOORD
36 1
Li	      4.32531     10.46793      6.53365         0.026777      0.007980      0.039090
Li	      2.12440      8.29262      6.59160        -0.054560     -0.044784      0.132775
Li	      6.10282     10.47580      8.47592        -0.014742      0.024757     -0.023912
Li	      4.27786      8.60231      8.50778        -0.020928      0.032556      0.042019
Li	      6.23031      8.48722     10.57107        -0.037309      0.053491      0.012682
Li	      4.22471      6.24187      2.14429        -0.003062     -0.038957     -0.061444
Li	      4.21851      4.21819      4.08513         0.027757     -0.015774     -0.096955
Li	      6.14953      8.56184      6.61693         0.012115      0.045875      0.079134
Li	      6.24544      6.43005      8.57397         0.026812      0.009601     -0.011614
Sc	      4.22703      6.32175     10.58532        -0.131979      0.080198     -0.041496
Ti	      4.26398      2.16949      6.41386         0.344885     -0.060661      0.171261
Cr	      2.12090      4.17317      2.13766        -0.012218      0.250581     -0.060143
Cr	      2.05605      2.13859      4.24681         0.055241     -0.019639     -0.200624
Cr	      6.23754      4.25354      6.40939         0.046452     -0.098514     -0.067506
Cr	      4.11616      6.42231      6.48671        -0.274578     -0.139021      0.090815
Cr	      8.27185      8.41735      8.57513         0.028477     -0.145611     -0.017893
Co	      2.03613      6.31896      4.38883         0.008981     -0.009548     -0.505173
Cu	      4.17878      8.45206      4.35454        -0.019666     -0.020038      0.127514
O	      2.07198      2.23918      2.26101        -0.018002     -0.181594      0.066005
O	      4.03288      4.24244      2.11741         0.163581      0.001861      0.032294
O	      4.08948      2.09784      4.43632         0.014941     -0.011451      0.064760
O	      6.26122      4.34039      4.38524         0.028934     -0.012788      0.033812
O	      6.11825      2.22514      6.34720        -0.365454      0.086446     -0.051872
O	      8.25788      4.36301      6.44056        -0.026928      0.089391     -0.077207
O	      2.02919      4.18655      4.13474        -0.056476      0.067359      0.157388
O	      4.19516      6.41500      4.43426        -0.131661     -0.013217      0.011265
O	      4.20041      4.19310      6.50318         0.035578     -0.022498     -0.038588
O	      6.24474      6.27991      6.32264        -0.017283      0.035462      0.018105
O	      6.24518      4.21276      8.39308        -0.090752      0.023330      0.203608
O	      8.29796      6.33155      8.40932        -0.002642      0.088617     -0.303561
O	      2.16700      6.33531      6.40958         0.204413     -0.043606      0.397060
O	      4.15590      8.33027      6.45951         0.054890      0.071118     -0.331704
O	      4.16966      6.21830      8.51422         0.060638     -0.003694      0.065664
O	      6.33807      8.43363      8.60847         0.003304     -0.060827      0.039058
O	      6.25163      6.24629     10.71641         0.181102      0.058742      0.001650
O	      8.38680      8.43704     10.57883        -0.046636     -0.085146      0.103736
