# total energy = -239.04896761 eV
 
CRYSTAL
PRIMVEC
0.041378 6.243082 6.228528 
6.307340 0.009596 6.260525 
4.202722 4.181269 0.008511 
PRIMCOORD
36 1
Li	      8.48477      8.41101     12.44040         0.003795      0.041639     -0.037402
Li	      4.17839      2.12785      2.12530         0.044284     -0.000865     -0.023344
Li	      8.32905      4.27442      4.22734        -0.014323      0.032598      0.067074
Li	      4.24677      4.08308      4.36928        -0.015426      0.018783      0.007495
Li	      4.21269      2.18974      6.09557        -0.022129     -0.064976      0.038580
Li	      6.20432      4.18186      6.16205         0.018899     -0.003267     -0.022503
Li	      4.23513      8.34780      4.25463         0.005934      0.004163      0.043787
Li	      2.21064      4.12031      6.19894        -0.014535      0.011292     -0.001482
Li	      4.30590      6.17329      6.22141        -0.019187     -0.054533      0.008703
Sc	      6.27327      6.24579      8.21027        -0.124487      0.117890     -0.053427
Ti	      2.21893      6.24120      4.30098         0.114019     -0.078317      0.248286
Cr	     10.38791      4.11405      6.25372        -0.020680     -0.095914     -0.011013
Cr	      2.16866      6.24206      8.31065         0.066401     -0.027545      0.014174
Cr	      6.32932      2.10355      8.29130         0.022619     -0.011838     -0.041779
Cr	      2.17589      2.10513      4.22566         0.013019      0.000304      0.012253
Cr	      4.23207      4.16520      8.26175        -0.073364      0.012587     -0.049167
Co	      2.13654      4.14937      2.06873        -0.070254     -0.193982      0.105653
Ni	      6.22266      2.13886      4.24133        -0.047956      0.076392      0.031114
O	      2.01840      2.04130      2.17139         0.029519     -0.065688     -0.013926
O	      4.29241      4.26743      1.98146        -0.172892     -0.039852     -0.119181
O	      4.14085      2.09758      4.14016        -0.095423      0.032930     -0.025069
O	      6.31015      4.24592      4.07574        -0.043429      0.087103     -0.015604
O	      6.35447      1.92930      6.29938        -0.012821     -0.014925      0.090381
O	      8.55049      4.17382      6.36998         0.189695      0.000604     -0.758257
O	      2.12586      4.21410      4.05801         0.009640      0.234961      0.637418
O	      4.16705      6.27718      4.10745        -0.083022     -0.002531     -0.033999
O	      4.22873      4.15756      6.34659        -0.002699      0.002241      0.063471
O	      6.32234      6.28114      6.21904        -0.026142     -0.051015      0.026450
O	      6.27362      4.12941      8.29689         0.166104      0.032241      0.061221
O	      8.46569      6.27304      8.43733        -0.038249      0.144507     -0.020422
O	      2.09007      6.24813      6.19439        -0.021655      0.048010     -0.148743
O	      4.27138      8.54577      6.26257        -0.040662      0.123556      0.013811
O	      4.19887      6.17205      8.30753        -0.000293     -0.008342      0.012001
O	      6.40402      8.38731      8.38324         0.050183     -0.020125     -0.110057
O	      6.42435      6.26581     10.43884         0.095697     -0.099461      0.045142
O	      8.38877      8.17463     10.36555         0.129819     -0.188624     -0.041640
