# total energy = -242.45402409 eV
 
CRYSTAL
PRIMVEC
0.026904 6.294479 6.294838 
6.357974 0.022044 6.299566 
4.232892 4.193743 0.020475 
PRIMCOORD
36 1
Li	      6.36787      0.21200      6.18203        -0.037908      0.011923      0.043470
Li	      8.27845      2.13529      6.20293         0.005402      0.008794     -0.014061
Li	      2.07277      0.08198      2.10855        -0.017698      0.013148      0.000005
Li	      6.51272      8.25423     10.64351        -0.012523      0.037108      0.028995
Li	      6.32084      2.11656      8.33645        -0.002735      0.016304     -0.017369
Li	      8.60803      6.23561      6.43892         0.065156      0.002935      0.034083
Li	      6.26468      4.36908     10.42308        -0.046391     -0.059622     -0.014812
Li	      8.27041      6.43298     10.44568        -0.036835      0.053535      0.033902
Li	      6.48600      6.25974      8.60110        -0.003933     -0.021755      0.015311
Sc	      4.23303      6.32221      6.30396        -0.131639      0.142418     -0.055259
Ti	      6.33536      8.43712      6.38040        -0.200067      0.242569      0.200630
Cr	      4.22092      2.10628      2.11875        -0.028673      0.042007     -0.046905
Cr	      4.33854      6.26702     10.51257        -0.067455     -0.027726      0.045014
Cr	      8.46735      4.25898      8.39967        -0.009518     -0.018270     -0.025104
Cr	      4.28932      4.18670      4.17919         0.029217     -0.048773     -0.132866
Cr	      6.39960      4.13692      6.33023         0.008688     -0.132484      0.087771
Co	      8.57993      8.24363      8.51199        -0.223617     -0.020368      0.212321
Co	      2.14150      2.10103      4.17321         0.027345     -0.011792     -0.150203
O	      2.22697      2.16954      2.21449         0.048579     -0.018772      0.114288
O	      4.17494      4.11018      2.19967         0.028250     -0.044835      0.045219
O	      4.11525      2.11747      4.11120        -0.016633     -0.007139      0.030732
O	      6.33703      4.33612      4.27123         0.014155      0.033711      0.020097
O	      6.34243      2.22217      6.29315        -0.010446      0.082868      0.019413
O	      8.36689      4.20800      6.32787         0.028174      0.056780     -0.009448
O	      2.24009      4.06489      4.19712         0.021635     -0.051061      0.071117
O	      4.43507      6.18111      4.22562         0.069952     -0.027684      0.041450
O	      4.22381      4.20085      6.25766         0.019368     -0.036411     -0.079693
O	      6.34827      6.36123      6.15949         0.011340      0.002978     -0.046013
O	      6.44064      4.21741      8.31631         0.001809      0.067298     -0.047938
O	      8.48350      6.23008      8.47166        -0.009920      0.069846     -0.039570
O	      2.19030      6.13070      6.21557         0.024139     -0.290199      0.043708
O	      4.40160      8.37735      6.37166         0.241111     -0.066280      0.043625
O	      4.23106      6.35957      8.43889         0.017305      0.011787     -0.002529
O	      6.33136      8.38525      8.24800         0.072954      0.028031     -0.325153
O	      6.24637      6.33273     10.53022         0.038428      0.008011     -0.006270
O	      8.49462      8.50382     10.49891         0.082982     -0.048876     -0.117958
