# total energy = -238.28357346 eV
 
CRYSTAL
PRIMVEC
0.000853 6.280130 6.196072 
6.239547 0.002452 6.194456 
4.168124 4.194092 -0.006873 
PRIMCOORD
36 1
Li	      0.05384      6.25923      6.21127         0.086534     -0.011685     -0.016901
Li	      2.11275      8.34197      6.22437         0.041535     -0.071146     -0.013526
Li	      6.24584     10.44635      8.23678         0.000613     -0.065604      0.008517
Li	      6.23926      6.28804      4.13781        -0.016072      0.019057      0.022826
Li	      4.12979      4.22025      4.11458        -0.060512      0.014097      0.006949
Li	      2.09513      6.22372      4.14860        -0.005728     -0.086424      0.010296
Li	      6.24448      8.37878      6.24239        -0.019321     -0.024029      0.060888
Li	      8.29295      8.37561      8.23232        -0.055770     -0.026229      0.015290
Li	      6.24744      6.32204      8.21736        -0.001278      0.085591     -0.009789
Sc	      6.32667      8.35613     10.29238         0.115463     -0.075162     -0.041134
Ti	      4.07018      6.21673      6.18535        -0.409250     -0.050080      0.001032
Cr	      4.14927      2.14359      2.02621        -0.004643      0.001142     -0.028650
Cr	      4.15603      6.27446     10.30285         0.053109     -0.024881     -0.124921
Cr	      4.19953      6.23938      2.07414         0.116295     -0.046332      0.063864
Cr	      8.25003      6.33399      6.20087        -0.041457      0.128138      0.050714
Cr	      0.05123      4.21338      4.15631        -0.189778      0.011802      0.005212
Cu	      2.09917      4.18149      2.08679        -0.041548      0.065557      0.069947
Ni	      6.23484      4.23032      6.19341        -0.049925     -0.020984     -0.000797
O	      2.07861      2.18694      2.04518        -0.014802     -0.151548     -0.026098
O	      4.08371      4.18812      2.07088         0.157387      0.041355     -0.035106
O	      4.18358      2.03266      4.10693        -0.093850      0.049010      0.043151
O	      6.33476      4.14034      4.14048        -0.033881      0.072259     -0.140995
O	      6.14586      2.12788      6.26358         0.017545     -0.116479      0.024017
O	      8.27788      4.33410      6.11324         0.180230      0.024287      0.072226
O	      1.97186      4.21628      4.07470         0.218495     -0.026386     -0.032506
O	      4.17137      6.35721      4.15805         0.026304     -0.041774      0.017624
O	      4.17727      4.23635      6.20344        -0.132412      0.032646      0.005624
O	      6.24021      6.26239      6.20830        -0.008221      0.162556      0.000539
O	      6.31594      4.06193      8.32420        -0.121579      0.030662      0.062925
O	      8.43073      6.22621      8.17743        -0.103640      0.095418     -0.081678
O	      2.24578      6.27039      6.18603         0.318651     -0.015863      0.019551
O	      4.17583      8.25786      6.19716        -0.014832      0.010312      0.040604
O	      4.15505      6.39176      8.21894        -0.007014     -0.005488     -0.015136
O	      6.12500      8.39269      8.29109         0.031247      0.002896     -0.026257
O	      6.18362      6.22590     10.33689         0.015021      0.009673      0.000707
O	      8.39317      8.46970     10.30397         0.047083      0.003636     -0.009010
