# total energy = -236.48242415 eV
 
CRYSTAL
PRIMVEC
-0.008605 6.457392 6.141825 
6.365258 0.037233 6.095431 
4.264476 4.295027 0.003852 
PRIMCOORD
36 1
Li	      4.25507     10.72410      6.16806         0.015352     -0.040094     -0.020747
Li	      6.35682      4.17159      2.13922        -0.009731     -0.056124     -0.044527
Li	      4.33475      2.19574      2.12809         0.004985     -0.031051     -0.071242
Li	      4.29414      6.57924     10.04606         0.073167      0.013191      0.034923
Li	      6.26561      8.61049     10.06154        -0.001447     -0.010068      0.085234
Li	      4.27138      6.37857      2.06771         0.046501     -0.020216      0.008219
Li	      2.23725      2.07774      3.98697         0.022004     -0.028150     -0.001147
Li	      8.31794      8.67572      8.20655        -0.057634      0.089821      0.022928
Li	      6.39378      6.61586      8.19387        -0.018901      0.032633      0.011698
Sc	      2.10675      2.09381      0.07228         0.060125     -0.049535     -0.062865
Ti	      6.36933      4.30090      6.10839         0.069988     -0.149573     -0.048094
Cr	      2.17513      4.27859      2.03236        -0.013882     -0.090819     -0.024386
Cr	      4.27970      4.28644      4.06289        -0.044469      0.429105     -0.018849
Cr	      6.34968      4.34614     10.12150        -0.017219     -0.015915     -0.012990
Cr	      8.45532      6.51056     10.12179        -0.027271      0.024892      0.092487
Cr	      4.30758      6.48310      6.25132        -0.059137      0.041029      0.086248
Cu	      4.29341      2.18587      6.13572         0.002743     -0.128575      0.159920
Cu	      6.34767      8.61974      6.25546        -0.035548     -0.009928     -0.110744
O	      6.36022      8.61451      8.11607        -0.039741      0.010697      0.136097
O	      2.14030      2.27545      2.04537        -0.015528      0.041434      0.044518
O	      4.16019      4.30110      2.10549         0.033595     -0.016063      0.027824
O	      4.23647      2.33044      4.23068         0.011620     -0.208148     -0.079929
O	      6.27523      4.35533      4.18277         0.000458     -0.028245      0.118904
O	      6.39503      2.35416      6.09326         0.078539      0.070899      0.004525
O	      8.36996      4.28745      6.10483        -0.056012     -0.016021      0.031083
O	      2.13103      4.41221      4.10029         0.029944      0.005729     -0.094083
O	      4.14530      6.45558      4.17684        -0.003166     -0.023252     -0.008588
O	      4.36093      4.47196      6.12189         0.101476      0.010425     -0.046440
O	      6.20332      6.38325      6.09881        -0.111063     -0.097643     -0.047238
O	      6.47970      4.32630      8.10649         0.043014     -0.031160     -0.092082
O	      8.50922      6.33151      8.11576         0.021155      0.106803     -0.159343
O	      2.25853      6.47476      6.05494         0.035198      0.119762      0.054306
O	      4.22742      8.48168      6.03852        -0.099373     -0.027350      0.055400
O	      4.19950      6.49159      8.03055        -0.027960      0.026773     -0.022803
O	      6.45846      6.32540     10.21330         0.016101      0.057207      0.005617
O	      8.62521      8.51715     10.15084        -0.027884     -0.002469     -0.013834
