# total energy = -240.81189521 eV
 
CRYSTAL
PRIMVEC
0.007154 6.281924 6.302370 
6.327382 -0.017982 6.327384 
4.210749 4.197091 -0.004175 
PRIMCOORD
36 1
Li	      6.47168     10.21080      8.43719         0.032974     -0.024125     -0.005958
Li	      4.47092      8.24201      8.38172         0.017589     -0.009958      0.025125
Li	      4.31018      6.14730     10.29009         0.052780     -0.024629     -0.011522
Li	      6.44021      8.29730     10.27480        -0.016083     -0.020955      0.102427
Li	      6.29176      4.22047      6.39868        -0.002670      0.031612      0.027335
Li	      6.21768      4.28129     10.45362        -0.034089      0.026598     -0.016879
Li	      6.30521      8.37364      6.56372         0.006399     -0.001980     -0.046532
Li	      8.28543      8.51867      8.51757         0.008249     -0.032342      0.002264
Li	      6.18278      6.42919      8.54039         0.031355     -0.029345      0.023418
Sc	      4.20657      2.19469      6.39737         0.001195      0.009215      0.002619
Ti	      2.15008      1.97374      4.13215         0.196363     -0.358105      0.037805
Cr	      4.25449     10.41152      6.33048         0.000761     -0.030250     -0.038535
Cr	      8.41774      2.09630      6.31099        -0.026603      0.035981     -0.024718
Cr	      4.22837      4.17870      4.13696         0.060677     -0.065208     -0.003183
Cr	      8.38937      6.31602     10.51466        -0.058096      0.031451      0.003889
Cr	      4.26174      6.28693      6.40698        -0.041992      0.036632      0.080190
Fe	      8.30401      4.18923      8.44668         0.077489      0.098627     -0.078127
Ni	      6.30453      2.12097      8.43378        -0.055647      0.050712     -0.005529
O	      2.04431      2.17156      2.15643         0.112432     -0.054036      0.064164
O	      4.11108      4.25611      2.10630        -0.018885     -0.081369      0.017787
O	      4.05747      2.15708      4.26365        -0.158143      0.026965     -0.041032
O	      6.25065      4.32878      4.15044         0.000070      0.353030      0.006617
O	      6.33970      1.96990      6.37094         0.000030      0.016246     -0.098023
O	      8.53617      4.15747      6.38044        -0.018129      0.003231     -0.020053
O	      2.21312      4.21085      4.12687        -0.010079     -0.045875      0.064143
O	      4.23863      6.21906      4.24042         0.014220     -0.020787      0.093896
O	      4.25919      4.23211      6.16090         0.005063      0.002181     -0.052102
O	      6.28978      6.31008      6.11709         0.014729     -0.019979     -0.145670
O	      6.41580      4.13536      8.40527        -0.140476      0.098273      0.027471
O	      8.44198      6.23739      8.46898        -0.090481      0.017463      0.017597
O	      2.12701      6.36881      6.22334         0.007192     -0.020386      0.013124
O	      4.08699      8.36344      6.32659         0.038024     -0.007273      0.000342
O	      4.23571      6.26231      8.30505        -0.011188      0.008843     -0.066819
O	      6.35590      8.34165      8.41399        -0.007722      0.012558     -0.001678
O	      6.44762      6.23308     10.68607        -0.005905     -0.004199      0.022515
O	      8.43500      8.28412     10.65143         0.018598     -0.008821      0.023633
