# total energy = -245.16337171 eV
 
CRYSTAL
PRIMVEC
0.039653 6.351871 6.329199 
6.312077 0.029034 6.339914 
4.219498 4.253055 0.007959 
PRIMCOORD
36 1
Li	      0.09645      6.34068      6.26777         0.015876     -0.021360     -0.029592
Li	     10.45654      6.54231      8.62656         0.029963      0.040860      0.046062
Li	      6.22316      6.50660      4.30455         0.025138     -0.033241     -0.020045
Li	      4.05506      4.41623      4.25524         0.030771      0.021021     -0.018717
Li	      6.27959      4.28613      6.40416        -0.005298      0.012948     -0.031376
Li	      0.14800      4.12304      4.15487        -0.026243      0.041597     -0.016444
Li	      2.26627      6.22885      4.25569        -0.043808      0.015465     -0.016869
Li	      2.12268      4.23708      6.07658        -0.038940      0.018447     -0.030195
Li	      4.40508      4.15488      8.44765         0.036718      0.015867      0.016741
Sc	      6.20561      4.22953      2.12569         0.019660     -0.063291      0.188331
Ti	      8.45185      4.20797      4.37354         0.000041     -0.047393      0.039608
Cr	      8.43922      8.47765     12.65888        -0.025565      0.026380      0.012206
Cr	      4.18143      2.12375      2.14132         0.044388     -0.066273      0.046623
Cr	      2.10710      4.25611      2.17151        -0.029290      0.039345      0.135804
Cr	      4.27800      6.33206      6.23999         0.038192     -0.098931     -0.122771
Cr	      6.36016      6.34452      8.42393         0.043854      0.069533      0.164468
Fe	      6.33874      2.13208      4.28717         0.037057      0.004966     -0.064787
Fe	      4.23085      2.36793      6.30976         0.008952     -0.146633      0.035613
O	      2.14909      2.15365      2.01954        -0.012312     -0.025357     -0.042825
O	      4.18003      4.11078      2.11164        -0.018718      0.021656     -0.006337
O	      4.18244      2.00867      4.27387        -0.102417     -0.063039     -0.070261
O	      6.52538      4.27880      4.14969         0.123443      0.066608     -0.063335
O	      6.29952      2.14736      6.31998         0.061606      0.010851      0.141172
O	      8.46646      4.20818      6.29099         0.005682     -0.022778     -0.077772
O	      2.12281      4.25913      4.08928        -0.003388     -0.016604     -0.105868
O	      4.25745      6.36276      4.32363        -0.023091      0.046345      0.103796
O	      4.23309      4.25651      6.33695         0.003411      0.313454     -0.017871
O	      6.36025      6.40783      6.42191        -0.091972     -0.012672     -0.053157
O	      6.43486      4.37132      8.42857         0.000658     -0.036318     -0.027942
O	      8.37429      6.32079      8.32297         0.033551     -0.008622      0.007507
O	      2.21821      6.44994      6.36223        -0.003975     -0.049356      0.016569
O	      4.15492      8.37157      6.46934        -0.057184     -0.023606      0.010799
O	      4.27575      6.41551      8.46664        -0.028146      0.007815     -0.024908
O	      6.23586      8.45661      8.50867        -0.032484      0.024772     -0.127308
O	      6.20809      6.38662     10.44955        -0.146851     -0.147519     -0.047063
O	      8.49637      8.63043     10.64391         0.130723      0.085061      0.050141
