# total energy = -91.44623806 eV
 
CRYSTAL
PRIMVEC
-2.158844 4.296911 -2.155867 
2.131535 4.269419 2.128396 
2.185996 0.013712 -6.467242 
PRIMCOORD
16 1
Li	      0.09243      4.46863     -4.58547         0.404323     -0.026638      0.272803
Li	      2.19937      6.68969     -4.46823        -0.117387     -0.376781      0.115180
Li	     -0.02331      4.45428     -0.17213        -0.216032      0.031462      0.554463
Li	      2.25577      2.23572     -4.48563        -0.027781      0.377054      0.017295
Mn	      0.13530      0.17379     -0.13426        -2.752340     -0.052206      1.457999
Mn	     -0.00220      6.69023     -2.26992         0.818732     -1.590943      0.074316
Ni	      0.01649      2.23746     -2.25984         0.324966      0.530705     -0.049705
Ni	      2.26885      4.45770     -2.29457        -0.035278      0.080019     -1.406871
O	      0.00708      4.47992     -6.88946         0.325710     -0.057565      1.221551
O	     -0.06070      2.38261     -4.35328        -1.097236     -0.824787      0.539840
O	      2.41300      4.46221     -4.48951         0.569349      0.073764      0.428353
O	      2.20340      4.33886      0.05592        -0.078748      0.156146     -1.532772
O	      2.19587      2.26148     -2.10271        -0.906881      1.043294      0.813578
O	      0.02283      6.81882     -0.14323         0.872788     -0.688107     -1.402802
O	     -0.08643      4.57338     -2.23117         0.930432      0.456816      0.236601
O	      0.11799      2.09447     -0.04982         0.985383      0.867765     -1.339828
