# total energy = -247.66588323 eV
 
CRYSTAL
PRIMVEC
0.003295 6.391500 6.182893 
6.373544 0.005690 6.180119 
4.256873 4.267339 -0.004146 
PRIMCOORD
36 1
Li	      4.39910     10.49228      6.19482         0.075568     -0.086332      0.037463
Li	      2.28110      8.41207      6.17742         0.030222     -0.020804      0.046049
Li	      6.46059     10.45007      8.22620         0.020125      0.044018     -0.011775
Li	      4.42031      8.48321      8.20873        -0.060047     -0.024857     -0.016806
Li	      2.23091      2.05869      4.13884         0.021484     -0.039979     -0.027751
Li	      4.31636      4.15155      4.12818         0.018982     -0.052424     -0.013432
Li	      6.31164      8.58747      6.38239        -0.003161     -0.001551     -0.058067
Li	      8.27991      8.66195      8.21967         0.034618      0.005228     -0.012086
Li	      6.27205      6.59979      8.21339        -0.022363     -0.026244     -0.019988
Sc	      0.05789      2.06542      2.03623         0.085944      0.029665     -0.061995
Ti	      2.22477      4.16489      2.06863         0.075437     -0.255690      0.005874
Cr	      4.23138      6.43009     10.23220         0.040549     -0.059665      0.078723
Cr	      8.40784      6.48999      6.17641         0.020479      0.015180     -0.041881
Cr	      6.33417      4.31749      6.16268         0.023350     -0.031051     -0.010986
Cr	     10.61813      8.56418     10.32058        -0.086217      0.088171     -0.060294
Cr	      8.43942      6.46075     10.31785        -0.084644      0.079121     -0.019987
Cr	      4.22157      6.42358      6.23866         0.075176     -0.057126      0.081280
Co	      6.35952      8.54267     10.22125        -0.049549      0.069308     -0.031140
O	      2.09993      2.29884      2.04876        -0.020885      0.275719     -0.008735
O	      4.11731      4.28679      2.04207        -0.170349      0.020248      0.007061
O	      4.22387      2.03530      4.21152         0.051560      0.028997      0.033793
O	      6.49582      4.28619      4.17812        -0.022399     -0.074931      0.020433
O	      6.21412      2.26217      6.16678        -0.043148      0.050347      0.022211
O	      8.39937      4.41422      6.19244        -0.024924      0.021264      0.099967
O	      2.03191      4.41552      3.99060         0.021553     -0.040057     -0.122377
O	      4.11789      6.50119      4.15071         0.041527     -0.002199     -0.018264
O	      4.34106      4.27003      6.15053        -0.037665      0.060629      0.012103
O	      6.35862      6.31209      6.16590        -0.050089      0.011944      0.025914
O	      6.52358      4.20184      8.23036         0.018749     -0.011599      0.037554
O	      8.54968      6.30074      8.23228         0.004399     -0.013636      0.031503
O	      2.21836      6.40793      6.09484        -0.001787     -0.029384      0.017099
O	      4.28278      8.40662      6.09461         0.017324      0.006384      0.017099
O	      4.25057      6.38818      8.25029        -0.033771      0.036534     -0.045276
O	      6.37380      8.52402      8.29555        -0.014085      0.011837     -0.008955
O	      6.36969      6.31121     10.35413         0.018836     -0.011860      0.002414
O	      8.59344      8.55234     10.30830         0.029202     -0.015206      0.013254
