# total energy = -244.62418734 eV
 
CRYSTAL
PRIMVEC
-0.001452 6.321353 6.271695 
6.416289 -0.014181 6.284225 
4.268047 4.212925 0.000123 
PRIMCOORD
36 1
Li	      0.15325      6.13715      6.23120         0.025968      0.010322     -0.012269
Li	      2.36348      8.29836      6.16694         0.012683     -0.010035      0.014115
Li	      4.17706      4.31656      4.32804         0.017184      0.018489     -0.032853
Li	      4.34474      8.41465      4.39463         0.025066     -0.004587     -0.050081
Li	      2.17086      6.20750      4.42848         0.008482     -0.036881     -0.053491
Li	      2.05738      4.31523      6.18226         0.028747     -0.048889      0.071893
Li	      4.14046      6.39581      6.22799         0.032667     -0.028992     -0.019399
Li	      4.27852      4.32298      8.26251         0.006103      0.020082      0.014129
Li	      6.38498      6.26395      8.35081         0.068661     -0.012105      0.015815
Sc	      4.21199      6.31846      2.15654        -0.095953      0.065879      0.032251
Ti	      6.58801      8.29092     10.47049         0.231842     -0.316027     -0.030551
Cr	      2.14986      6.29516      8.29294        -0.247296      0.020867      0.017577
Cr	      4.28128      8.40983      8.28499         0.008542      0.017713      0.016500
Cr	      8.53823      4.21485      8.37240        -0.041751     -0.012206      0.046247
Cr	      6.36687      6.35209      4.22857        -0.069266      0.001374     -0.079615
Cr	      4.23363      2.13132      6.25841         0.039765      0.079875      0.086830
Cr	      6.35356      4.24219      6.24808        -0.102391     -0.071215      0.083355
Cu	      4.33837      6.27475     10.45337         0.057836     -0.150431      0.044610
O	      2.16713      2.10935      2.14641         0.019526     -0.023822      0.069362
O	      4.23970      4.17214      2.06782         0.007367      0.028633     -0.065629
O	      4.23418      1.99441      4.19127        -0.049575      0.105779     -0.053771
O	      6.32353      4.22434      4.17909        -0.271016      0.099284     -0.002512
O	      6.29534      2.19542      6.18682        -0.047823      0.024331     -0.164799
O	      8.41362      4.28676      6.32553         0.052474      0.033213     -0.146883
O	      2.15571      4.11630      4.07914        -0.021543     -0.061507     -0.049196
O	      4.37248      6.34093      4.14488         0.015670      0.035908     -0.031898
O	      4.36499      4.10311      6.28944         0.052581     -0.027157      0.081802
O	      6.49953      6.24602      6.20518        -0.005649     -0.000362     -0.062534
O	      6.51433      4.17567      8.25998         0.058848     -0.071758     -0.073228
O	      8.58087      6.20579      8.27348         0.092866     -0.039642     -0.032184
O	      2.12392      6.32586      6.38366         0.089741     -0.017960      0.102675
O	      4.28823      8.41744      6.37204         0.003337      0.001665      0.083253
O	      4.13468      6.40280      8.38920         0.156549      0.037788      0.117332
O	      6.28898      8.52218      8.50948        -0.023077     -0.016010      0.098528
O	      6.49679      6.47692     10.46282         0.151335      0.430197     -0.008171
O	      8.42636      8.51757     10.45029        -0.288498     -0.081815     -0.027208
