# total energy = -245.18263382 eV
 
CRYSTAL
PRIMVEC
0.010239 6.300549 6.345228 
6.178648 0.011133 6.344180 
4.121754 4.202338 0.004828 
PRIMCOORD
36 1
Li	      6.25257      6.39192     12.61608         0.008193      0.030169     -0.053237
Li	      2.01361      8.32712      6.33292        -0.013967     -0.009310     -0.036743
Li	      6.27539      8.35152     10.58979         0.022101      0.013625     -0.024744
Li	      8.19593      4.23928      8.35609         0.002465      0.030352     -0.066724
Li	      6.16214      6.29934      4.24870         0.001570     -0.015152     -0.008356
Li	      6.21688      4.20904      6.41655         0.032646     -0.011312      0.041689
Li	      8.16772      6.41119     10.64766         0.014575     -0.007329      0.087237
Li	      6.16252      8.43048      6.39736         0.018212      0.000018      0.019568
Li	      8.24588      8.30168      8.54186         0.003166      0.010006      0.086572
Sc	      8.20174      4.14497      4.32200         0.032219     -0.105560      0.026664
Ti	      4.01152      4.19904      4.28075        -0.290460     -0.012677      0.159533
Cr	      6.18277     10.47534      8.42472         0.083725     -0.059234     -0.073746
Cr	      4.08367      2.15836      2.03562         0.000940     -0.081241     -0.014135
Cr	      6.18542      2.16722      8.40615        -0.024289      0.044428      0.025043
Cr	      8.23330      6.31051      6.36824         0.003459      0.048997      0.019412
Cr	      0.05221      4.21371      4.24296         0.054133      0.027311      0.056667
Cr	      4.15086      6.29678      6.34029         0.002784     -0.006668      0.016993
Ni	      6.26331      6.31703      8.46064        -0.017760     -0.035797      0.080040
O	      2.04968      1.99893      2.09659         0.018468      0.026435     -0.001650
O	      4.16044      4.20362      2.19374        -0.053447      0.010928      0.009785
O	      4.08703      2.19812      4.19488         0.007137      0.093930     -0.002934
O	      6.09670      4.19263      4.11510        -0.110338      0.026054      0.012759
O	      6.10130      2.13614      6.46151         0.006193      0.023261     -0.067192
O	      8.24006      4.34731      6.29168         0.023105     -0.011698      0.069964
O	      2.13929      4.20605      4.21057         0.271313     -0.015304      0.032590
O	      4.13683      6.26846      4.26067        -0.014075     -0.030878     -0.053568
O	      4.14781      4.21846      6.18773        -0.006427     -0.019956     -0.161550
O	      6.18701      6.28695      6.43909         0.000566      0.013370     -0.227981
O	      6.21737      4.13599      8.60874        -0.042651     -0.040069     -0.068672
O	      8.30312      6.34448      8.33632         0.161382     -0.048070     -0.009214
O	      2.17297      6.26783      6.44515        -0.017796      0.002325     -0.027573
O	      4.14671      8.29122      6.35599        -0.028848      0.002344     -0.017352
O	      4.10410      6.42148      8.39229        -0.123576     -0.034095     -0.005417
O	      6.07453      8.44932      8.47466         0.006635      0.115300     -0.003110
O	      6.19009      6.21254     10.50705        -0.013669      0.009492      0.168857
O	      8.35057      8.44348     10.59277        -0.017683      0.016004      0.010525
