# total energy = -249.05903868 eV
 
CRYSTAL
PRIMVEC
0.008402 6.301581 6.237357 
6.336965 0.005628 6.240101 
4.225019 4.203283 0.003370 
PRIMCOORD
36 1
Li	      8.39303      8.46551     12.24594         0.023379     -0.032030      0.067773
Li	      8.35447      4.06807      4.30781         0.022463      0.115283     -0.007505
Li	      6.47623      2.21953      4.26649        -0.047472      0.000279      0.003139
Li	      4.22928      4.20623      4.33997         0.005754     -0.045199     -0.013953
Li	      4.27756      2.13772      6.16276         0.051431     -0.012560     -0.036383
Li	      6.35157      4.12899      6.12871        -0.012233      0.007778      0.042890
Li	     10.49844      8.38705     10.40460         0.007144      0.024113     -0.018932
Li	      8.46702      6.37428     10.43154        -0.015806     -0.019226     -0.012100
Li	      2.20826      4.19582      6.07781        -0.013587      0.024704     -0.057179
Sc	      6.32319      6.33165     12.25946        -0.016271      0.011871     -0.044434
Ti	      4.36205      8.42263      8.37818        -0.089126     -0.045499      0.424004
Cr	      6.33735      4.22535      2.11658        -0.052940      0.032371      0.073256
Cr	     10.53875      6.33135      8.32761         0.103706     -0.127133     -0.007275
Cr	      8.42143      4.21825      8.32963         0.056639     -0.077176      0.024658
Cr	      6.34242      6.31068      4.24657         0.178148     -0.049014     -0.012305
Cr	      4.17358      6.27926      6.17978        -0.014823     -0.016525     -0.017557
Cr	      8.46417      8.38734      8.37104        -0.062521      0.067442     -0.130467
Cr	      6.37620      6.27878      8.33062        -0.047603      0.061458     -0.019998
O	      2.11104      2.10420      2.19177        -0.129606      0.030385     -0.092823
O	      4.24286      4.15584      2.04842        -0.013080      0.129996      0.062689
O	      4.14155      2.09909      4.00543        -0.055996     -0.001662     -0.184075
O	      6.34392      4.29131      4.07075        -0.050088      0.040328      0.030118
O	      6.35257      2.06246      6.36363         0.014724     -0.016334     -0.070984
O	      8.50709      4.20485      6.34899        -0.052786      0.014494     -0.012380
O	      2.13624      4.10522      4.05744        -0.060826      0.016205      0.000193
O	      4.32381      6.29350      4.16912        -0.053509      0.015560     -0.067413
O	      4.19374      4.29742      6.35661         0.035683      0.039760     -0.017916
O	      6.20145      6.33208      6.25700        -0.011846      0.003027      0.086936
O	      6.34543      4.14881      8.31173         0.019232     -0.011752      0.010158
O	      8.50213      6.30183      8.32717         0.052573     -0.035539     -0.009758
O	      2.14324      6.28996      6.33222         0.032596      0.028729     -0.044055
O	      4.18672      8.36362      6.43768         0.007674     -0.035044     -0.052105
O	      4.17916      6.32402      8.23636         0.025861     -0.073994      0.077720
O	      6.30842      8.45878      8.37695         0.114763     -0.004770     -0.036384
O	      6.33824      6.30289     10.30363         0.039830     -0.050464      0.000926
O	      8.46278      8.40628     10.28023         0.008520     -0.009865      0.061520
