# total energy = -238.84111945 eV
 
CRYSTAL
PRIMVEC
0.007419 6.268151 6.284018 
6.298859 0.011315 6.280472 
4.210791 4.188099 -0.004117 
PRIMCOORD
36 1
Li	      2.20087      6.24715      8.36694         0.060628      0.014726      0.021615
Li	      8.36591      4.20952      4.18703        -0.058739      0.032178      0.001601
Li	     10.32524      6.36965      8.36567        -0.082976      0.055023      0.012368
Li	      8.34565      6.34726      6.40766        -0.085230      0.039750     -0.043486
Li	      6.25527      4.23834      6.29796         0.002238      0.063378     -0.064493
Li	      8.39529      6.30548     10.40617         0.034540      0.025494      0.022638
Li	      2.20757      4.19135      6.33260         0.050096     -0.051344      0.000543
Li	      4.24550      6.19670      6.36649         0.049182     -0.027681     -0.027127
Li	      4.26267      4.11370      8.16907         0.035751     -0.029807     -0.022548
Sc	      4.20860      4.30877      4.31507         0.112033      0.056559      0.045093
Ti	      8.34310      8.27761     12.52861        -0.117662     -0.273905      0.010946
Mn	      4.23989      8.33010      8.34002         0.025037     -0.042958      0.067426
Cr	      6.33507      8.38301     10.45176        -0.041161      0.064141      0.041757
Cr	      8.40111      4.20520      8.33833        -0.016082     -0.062856      0.026352
Cr	      0.02454      4.16612      4.19157         0.007525     -0.132447      0.046616
Cr	      6.32177      6.27501      8.30988        -0.156527      0.052065     -0.138461
Co	      6.32667      6.21844      4.36280        -0.007019      0.144998     -0.154913
Ni	      6.28505      0.02128      6.26499         0.025500      0.015389      0.017168
O	      2.27252      2.12595      2.04256         0.037809     -0.001592      0.047722
O	      4.12468      4.05566      2.06550        -0.007448     -0.030723      0.061706
O	      4.28324      2.12153      4.00554         0.013627     -0.025084     -0.087774
O	      6.28590      4.11258      4.15068         0.031570      0.147669     -0.020501
O	      6.39763      2.08171      6.20123         0.124141      0.099694      0.001371
O	      8.43597      4.05693      6.36004        -0.110638     -0.060255      0.003811
O	      2.03771      4.14438      4.11118        -0.043977     -0.291912      0.133477
O	      4.24706      6.36419      4.13199        -0.063401      0.066830      0.017872
O	      4.18522      4.19237      6.24670         0.027790     -0.029974      0.008697
O	      6.32933      6.27664      6.33283         0.077166     -0.050055     -0.031292
O	      6.36398      4.25497      8.48503        -0.031968     -0.023546     -0.004843
O	      8.33076      6.18376      8.36444         0.010223      0.032594      0.042510
O	      2.06493      6.40069      6.32599         0.098028      0.295380     -0.007164
O	      4.13105      8.40004      6.30880        -0.026878     -0.114985     -0.021418
O	      4.29907      6.45134      8.35784         0.006182      0.036536      0.009480
O	      6.18700      8.31691      8.43729         0.017135      0.002169     -0.014113
O	      6.31204      6.28357     10.42533         0.012765      0.021540     -0.117083
O	      8.42914      8.38497     10.57814        -0.009259     -0.016988      0.114447
