# total energy = -241.48122183 eV
 
CRYSTAL
PRIMVEC
0.019182 6.294297 6.349760 
6.297849 0.018228 6.350657 
4.194858 4.193074 0.015909 
PRIMCOORD
36 1
Li	      0.08929      6.27519      6.29234         0.054494      0.002901      0.000194
Li	      2.13357      8.33433      6.32401        -0.019976     -0.009808     -0.032514
Li	      2.09188      0.03019      2.09919        -0.000847      0.006550      0.055536
Li	      4.20054      0.11765      4.28964        -0.015419      0.056566      0.020871
Li	      6.23799      2.06625      4.27975         0.010530     -0.003419      0.008532
Li	      2.19409      2.08201      4.29000         0.028125     -0.026298     -0.000939
Li	      4.19997      2.09994      6.16447         0.001836     -0.029452     -0.090439
Li	      2.06498      4.24239      6.33511        -0.006431      0.047897      0.011272
Li	      4.17503      6.34252      6.36013        -0.021929      0.003473      0.013563
Sc	      2.14181      4.15449      2.05813         0.059235     -0.024741     -0.008366
Ti	      6.29232      4.20886      6.16682         0.045013      0.001450     -0.644306
Mn	      2.09952      6.32393      4.33613        -0.014920     -0.036099      0.021256
Cr	      4.23492      8.36446      8.44747        -0.002992     -0.000921      0.038889
Cr	      0.04890      2.06376      2.08936         0.022719     -0.031997      0.059756
Cr	      8.34891      8.44926      8.47820        -0.084394      0.051197      0.057666
Cr	      6.30085      6.31486      8.45600         0.024468      0.009560      0.028912
Co	      4.19601      4.12459      4.31884         0.017655      0.034699      0.069123
Co	      4.18448      8.39418      4.50207         0.008676      0.015673      0.037801
O	      2.08145      2.12621      2.16527         0.018120     -0.031481     -0.005982
O	      4.19272      4.21464      2.08618         0.004247     -0.002881      0.032423
O	      4.20519      2.14798      4.10155         0.029068      0.004140      0.006133
O	      6.27674      4.20912      4.32544        -0.001940     -0.005372      0.557672
O	      6.28722      2.24911      6.48842         0.007759      0.060385      0.019949
O	      8.25104      4.23710      6.39612        -0.130127     -0.006930      0.002818
O	      2.10274      4.35344      4.20527        -0.059580      0.075638     -0.012001
O	      4.08127      6.26898      4.14507        -0.075917      0.024893     -0.026982
O	      4.30360      4.20545      6.47338         0.059160      0.012549     -0.046951
O	      6.31051      6.15202      6.47528        -0.005076     -0.109593      0.014659
O	      6.24265      4.18348      8.48713         0.004294      0.015267     -0.070422
O	      8.42779      6.37147      8.57368        -0.016310      0.002917      0.034142
O	      2.11223      6.32184      6.14299        -0.001874     -0.025117     -0.084845
O	      4.19979      8.39185      6.47654         0.002330     -0.000345     -0.028187
O	      4.32271      6.29083      8.53238        -0.031092      0.010694     -0.013423
O	      6.32075      8.28943      8.44406         0.003123      0.007865     -0.002868
O	      6.46454      6.28695     10.49835         0.066335      0.000271     -0.008664
O	      8.41531      8.27468     10.49737         0.021636     -0.100133     -0.014277
