# total energy = -235.01514417 eV
 
CRYSTAL
PRIMVEC
-0.034384 6.481171 6.210080 
6.267661 -0.007331 6.182659 
4.173170 4.296906 0.000595 
PRIMCOORD
36 1
Li	      6.25065      6.40204     12.21648         0.011498     -0.000566      0.031930
Li	      8.35954      8.65216     12.24639         0.014414     -0.049556     -0.051547
Li	      8.40935     10.70387     10.41812         0.062247     -0.054826     -0.039634
Li	      6.28255      8.48709     10.39115         0.011754     -0.145974      0.021324
Li	      6.33689      4.32241      6.10407        -0.024944     -0.012067     -0.058511
Li	      6.26917      4.54290     10.36276        -0.047549      0.094052      0.046647
Li	      8.15934      6.44445     10.42417        -0.029694      0.072655      0.046346
Li	      2.01373      4.37705      6.17097        -0.003612      0.037027      0.022545
Li	      6.24020      6.46340      8.40236        -0.062616      0.022958      0.012429
Sc	      4.17420      6.53568      6.13816        -0.004950      0.091983      0.044507
Ti	      6.27490      2.27773      8.16934         0.090457      0.068556     -0.250023
Mn	      8.26009      8.60079      8.35161        -0.020316      0.004293      0.137736
Cr	      2.06243      6.47074      8.25819         0.062505      0.002331     -0.114089
Cr	      4.18467      8.62065      8.26721         0.020707     -0.019349     -0.087246
Cr	      4.15246      4.27702      4.15283         0.009663      0.060394      0.111150
Cr	      8.29595      6.38973      6.18384         0.084070      0.072488     -0.096343
Cu	      8.29107      4.35391      8.22658        -0.050739     -0.013650      0.007032
Ni	      6.25716      6.45288      4.14936        -0.033476     -0.062746      0.048374
O	      6.23039      6.46800     10.29829         0.013872      0.003287      0.021872
O	      2.06913      2.06760      2.06059        -0.068552      0.053791     -0.084171
O	      4.27087      4.22230      2.14925        -0.143410      0.011047     -0.098355
O	      4.14359      2.26429      4.13631         0.111929     -0.055648      0.065911
O	      6.14230      4.38750      4.04891         0.130186     -0.043666      0.181118
O	      6.18521      2.12726      6.32216         0.032828      0.033309      0.285954
O	      8.31397      4.43431      6.29491         0.003389     -0.003009     -0.050874
O	      2.16448      4.20974      4.00471        -0.118174      0.076887     -0.004500
O	      4.17208      6.30054      4.03601        -0.112815      0.009579     -0.063957
O	      4.15029      4.25542      6.25185         0.011932     -0.033582     -0.008812
O	      6.30487      6.44884      6.19656        -0.098771     -0.010821      0.084582
O	      6.13702      4.12780      8.28986         0.089583     -0.105764      0.003916
O	      8.46258      6.44278      8.19674        -0.075614      0.074189      0.101999
O	      2.13288      6.47270      6.28794        -0.019702     -0.027929     -0.130078
O	      4.15934      8.57123      6.30887         0.034831     -0.031602     -0.035861
O	      4.08028      6.57761      8.26218         0.066485     -0.057496      0.024144
O	      6.22734      8.76981      8.28865         0.047498     -0.038947      0.015695
O	      8.30834      8.62427     10.19056         0.005085     -0.021629     -0.141210
