# total energy = -91.02189481 eV
 
CRYSTAL
PRIMVEC
-2.169223 4.317569 -2.166231 
2.141783 4.289945 2.138629 
2.196506 0.013778 -6.498335 
PRIMCOORD
16 1
Li	      0.09332      4.51169     -4.62967         0.433108     -0.031911      0.307426
Li	      2.22057      6.75417     -4.51129        -0.130756     -0.399566      0.121506
Li	     -0.01297      4.49728     -0.20502        -0.234557      0.037482      0.598735
Li	      2.27752      2.25727     -4.52886        -0.033633      0.395657      0.023780
Mn	      0.15746      0.19615     -0.15652        -2.994627     -0.051288      1.653177
Mn	     -0.00222      6.75471     -2.29179         0.866155     -1.735364      0.068594
Ni	      0.01665      2.25902     -2.28162         0.339759      0.577164     -0.079583
Ni	      2.29072      4.50067     -2.31668        -0.012168      0.087807     -1.540819
O	      0.00715      4.52310     -6.95587         0.336949     -0.068082      1.387595
O	     -0.05099      2.42621     -4.38496        -1.132520     -0.907910      0.610435
O	      2.43626      4.50521     -4.53278         0.569262      0.084500      0.455401
O	      2.22464      4.38068      0.05646        -0.086349      0.220160     -1.733237
O	      2.21704      2.28328     -2.12298        -0.983315      1.149280      0.856918
O	      0.02306      6.88454     -0.14461         0.972321     -0.765414     -1.507574
O	     -0.08726      4.61746     -2.25268         1.049805      0.459982      0.259992
O	      0.11912      2.11465     -0.05030         1.040566      0.947503     -1.482346
