# total energy = -243.20563593 eV
 
CRYSTAL
PRIMVEC
0.024929 6.122101 6.396740 
6.280736 0.013745 6.408532 
4.203060 4.105557 -0.007044 
PRIMCOORD
36 1
Li	      4.19714      4.12347      0.08438        -0.031871      0.009322      0.098770
Li	      6.24606      4.09914      2.09225        -0.058385      0.026294      0.010728
Li	      4.21218      2.11940      2.11985        -0.021842      0.057546      0.010738
Li	      4.15483      6.07881      2.17382         0.017525     -0.013194      0.038243
Li	      6.24417      6.18379      4.29216        -0.022554      0.014570      0.040226
Li	      8.34328      6.15393      6.48272        -0.033744      0.010564      0.000552
Li	      8.40508      6.14431     10.61198         0.022297     -0.056689     -0.034392
Li	      4.26545      6.13057      6.43140         0.023859     -0.000538      0.062744
Li	      6.33287      6.15306      8.46779        -0.041622     -0.015597     -0.047802
Sc	      4.22298      6.21357     10.59096        -0.056650      0.127711     -0.014950
Ti	      2.16887      8.02489      6.54579         0.035181     -0.203538      0.459591
Mn	      8.40123      8.13123      8.49787         0.086210      0.036392     -0.086351
Cr	      6.33894      8.13266     10.64519         0.040146      0.058734     -0.041720
Cr	      4.18040      4.15230      4.21589        -0.079644      0.066835      0.051314
Cr	      6.28511      4.16450      6.42453        -0.084807      0.042003      0.069764
Cr	      6.29180      8.17149      6.43852        -0.012344      0.061923     -0.039844
Fe	      4.28741      8.08953      4.22505         0.045000      0.160708      0.007662
Co	      8.41593      4.20924      8.51611         0.206945     -0.038720     -0.077842
O	      2.12620      2.07382      1.96922         0.008456      0.033017     -0.357074
O	      4.14094      4.11160      2.25550        -0.056488      0.008632     -0.055669
O	      4.32685      2.11927      4.22249        -0.002508      0.007114      0.021799
O	      6.23432      4.06304      4.37078         0.036092     -0.004018     -0.000229
O	      6.42407      2.12797      6.26331         0.075215     -0.064560     -0.030275
O	      8.28469      4.04475      6.35942        -0.030653     -0.013356      0.041394
O	      2.10822      4.10760      4.40079         0.037199     -0.004800     -0.076948
O	      4.22712      6.19250      4.22467         0.009725     -0.208952      0.023309
O	      4.17247      4.10640      6.30194         0.056232      0.016537     -0.059646
O	      6.30593      6.17648      6.38018        -0.019764     -0.132890      0.007273
O	      6.26645      4.08589      8.50297        -0.056194      0.008283     -0.020174
O	      8.41120      6.21809      8.50971        -0.009739      0.026651      0.009422
O	      2.09247      6.15506      6.45279         0.000372      0.114160     -0.030843
O	      4.19572      8.18729      6.30090        -0.056010     -0.000709     -0.004417
O	      4.18139      5.98171      8.60148        -0.014349     -0.068991     -0.045557
O	      6.40554      8.16851      8.52552        -0.008917     -0.000543      0.033732
O	      6.27073      6.12424     10.68219         0.017702     -0.046777     -0.016922
O	      8.41899      8.18083     10.75478        -0.020068     -0.013128      0.053395
