# total energy = -240.53658930 eV
 
CRYSTAL
PRIMVEC
0.018523 6.268190 6.254446 
6.345104 -0.007478 6.280477 
4.221075 4.187093 0.004019 
PRIMCOORD
36 1
Li	      4.25380      4.16433      0.06678        -0.008731      0.007516      0.053987
Li	      2.22526      6.22601      8.30729         0.020123      0.013674     -0.021097
Li	      4.25207      8.30577      8.29512        -0.027118      0.035699     -0.019643
Li	     10.49115      6.29945      8.41018        -0.017234     -0.021665      0.038421
Li	      6.31697      4.19335      6.38086        -0.004500     -0.004930     -0.014354
Li	      2.18010      6.25012      4.13571         0.065840      0.021363     -0.020412
Li	      4.24289      6.24054      6.42917        -0.009356     -0.012724      0.021163
Li	      4.34989      4.26345      8.29334         0.045997     -0.020131     -0.007825
Li	      6.27036      6.18147      8.30434         0.020960      0.018040     -0.027823
Sc	      2.13979      8.26170      6.33673        -0.031646     -0.013186     -0.062070
Ti	      6.39107      8.24946     10.27932         0.214738     -0.273646     -0.155867
Mn	      8.45176      4.23422      8.37497         0.200203      0.092230     -0.018125
Cr	      4.21716      6.26974     10.33413         0.003202     -0.081052      0.131016
Cr	      4.24049      4.20042      4.16007         0.082175      0.065019      0.088616
Cr	      8.49571      6.26489      6.31789         0.000637      0.007341      0.113562
Cr	      6.32975      8.41863      6.34295         0.112226     -0.035254      0.036302
Fe	      6.23086      6.25508      4.17701         0.160808      0.066552      0.030365
Cu	      6.36554      4.16548     10.42369        -0.042457      0.001641      0.031964
O	      2.12947      2.22439      2.14968        -0.027306     -0.058934     -0.051208
O	      4.06602      4.19529      2.21259        -0.010858     -0.005997     -0.090748
O	      4.28728      2.09180      4.23329        -0.038772     -0.022474     -0.025460
O	      6.32181      4.20467      4.14427         0.015949     -0.081942     -0.034254
O	      6.32318      2.11283      6.09962        -0.001415     -0.015927     -0.045653
O	      8.43786      4.21110      6.17257        -0.009173     -0.005943     -0.072352
O	      2.24711      4.13749      4.31657         0.019655      0.053862      0.060905
O	      4.31904      6.18604      4.21925        -0.241043     -0.012924     -0.003709
O	      4.17156      4.09292      6.23223        -0.020440      0.031872     -0.032849
O	      6.46500      6.35987      6.18604        -0.040504      0.010472      0.065387
O	      6.49168      4.17300      8.50138        -0.146033     -0.020058     -0.041159
O	      8.47895      6.17011      8.27492        -0.021623     -0.012892      0.022936
O	      2.10330      6.24857      6.28818         0.006134     -0.009802     -0.024368
O	      4.26994      8.37106      6.12660        -0.021304     -0.003396      0.084949
O	      4.23133      6.27768      8.43651         0.010038      0.020111     -0.116087
O	      6.31738      8.38487      8.40714        -0.029917     -0.017886      0.126111
O	      6.24730      6.38073     10.39519         0.048926      0.301253     -0.018358
O	      8.31939      8.42388     10.44627        -0.278180     -0.015884     -0.002262
