# total energy = -240.48408609 eV
 
CRYSTAL
PRIMVEC
0.016728 6.249663 6.369838 
6.272823 0.009339 6.377901 
4.181244 4.170949 0.006765 
PRIMCOORD
36 1
Li	      2.17759      6.20962      8.42360         0.005016     -0.009540     -0.018540
Li	      4.19797      6.25787     10.58829         0.025580     -0.032239     -0.033511
Li	      8.33401      4.18121      8.42816         0.021798     -0.017652      0.025888
Li	      4.20410      4.16259      4.41963        -0.048070      0.013808      0.055449
Li	      8.26825      6.34592      6.49124        -0.023665      0.013539      0.044369
Li	      2.30012      4.17597      6.42674        -0.016576      0.018517     -0.046172
Li	      4.18230      6.12808      6.54005         0.026034      0.029003      0.010494
Li	      4.18530      4.21363      8.32731        -0.048092      0.006250      0.071967
Li	      6.21895      6.29694      8.38617        -0.010824      0.110912     -0.038987
Sc	      6.32899      6.27332      4.33217        -0.097518      0.243785      0.008510
Ti	     10.31200      6.16946      8.50904        -0.350560     -0.438482      0.196138
Mn	      4.23556      8.28363      8.46679         0.166802     -0.006431      0.192321
Cr	      2.11683      2.08858      0.03891        -0.047925     -0.037816     -0.124262
Cr	      6.24819      2.13589      4.20723         0.105315      0.054100     -0.041565
Cr	      6.24425      4.20526      6.40974        -0.007156      0.135437     -0.253891
Cr	      2.09771      6.20615      4.29798         0.005754     -0.190185     -0.050802
Fe	      6.26789      4.24857     10.53578        -0.094934     -0.029414     -0.035436
Ni	     10.41360      4.17903      6.37067         0.012945     -0.017314      0.029173
O	      2.16734      2.07543      2.09255        -0.045156     -0.010047     -0.031796
O	      4.19720      4.22721      2.04899        -0.020532      0.172037      0.058525
O	      4.23039      2.12898      4.05945         0.015141     -0.030463     -0.131377
O	      6.28139      4.14571      4.36726         0.007233     -0.058307      0.056760
O	      6.32401      2.11747      6.39372        -0.010132      0.089473      0.044634
O	      8.33103      4.08959      6.37578        -0.091902     -0.019122      0.027054
O	      2.02055      4.19429      4.30961         0.551917      0.035461     -0.017085
O	      4.17232      6.22598      4.08066        -0.057296     -0.023448     -0.292732
O	      4.28228      4.15797      6.40452         0.056079     -0.010129      0.037584
O	      6.32080      6.18644      6.32700        -0.031387     -0.072375      0.094548
O	      6.27028      3.99513      8.43165         0.038529     -0.035298      0.335016
O	      8.46866      6.21405      8.59876         0.342407      0.019138     -0.055531
O	      2.07233      6.32737      6.27083         0.120729      0.036104      0.056003
O	      4.11913      8.37153      6.51002         0.022785     -0.161570     -0.132157
O	      4.20765      6.44300      8.50305        -0.002596      0.128485     -0.000087
O	      6.14559      8.37541      8.59671        -0.069659     -0.019389     -0.009971
O	      6.37518      6.35559     10.66397        -0.079075      0.123029     -0.150328
O	      8.33678      8.27013     10.72158        -0.371009     -0.009855      0.119796
