# total energy = -246.25624717 eV
 
CRYSTAL
PRIMVEC
-0.003381 6.278827 6.405039 
6.248345 -0.008688 6.410706 
4.155143 4.179099 0.004879 
PRIMCOORD
36 1
Li	      8.37497      8.39424     12.70253        -0.007263     -0.045501     -0.039836
Li	      2.11320      6.28692      8.48117         0.017368      0.015323     -0.021391
Li	      4.11723      8.36508      8.49855         0.016332     -0.022685     -0.007407
Li	      8.39458     10.33729     10.72063        -0.032768     -0.015101     -0.005340
Li	      6.29198      8.30398     10.76455        -0.012575      0.006257     -0.009684
Li	      8.35044      4.13102      8.40283         0.004473      0.010532      0.065015
Li	      4.18583      2.01237      6.33356         0.009506     -0.013780     -0.055203
Li	     10.28475      8.42663     10.85061        -0.010487     -0.024543      0.007560
Li	      4.09105      6.36716      6.45045        -0.019560      0.048146     -0.002826
Sc	     10.37895      6.24862      8.53039         0.018498     -0.010286      0.078494
Ti	      2.19080      2.08457      4.21426         0.172600      0.046391     -0.307473
Mn	      6.21041      6.27708      8.66176         0.016839     -0.026752     -0.007298
Cr	     10.34755     10.42116     12.79359         0.031209      0.010665     -0.005039
Cr	      4.17661      4.18100      4.27058        -0.057977     -0.053497     -0.109820
Cr	      6.30428      4.17998      6.36963         0.059110     -0.051664      0.055333
Cr	      6.20371      8.34452      6.42942        -0.105465      0.122171     -0.054849
Cr	      8.28472      8.40669      8.57072         0.071646      0.024792      0.143240
Co	      8.29361      6.33487     10.75174        -0.114345     -0.105836     -0.224745
O	      2.04496      2.09590      2.32160        -0.040156     -0.007715      0.307039
O	      4.12838      4.22908      2.18110         0.026035      0.023023     -0.021575
O	      4.07104      2.18540      4.24711        -0.190315      0.017144      0.005490
O	      6.19007      4.26929      4.36166         0.033430      0.101559      0.038625
O	      6.26140      2.11472      6.46119        -0.071189      0.009931      0.028495
O	      8.30018      4.15983      6.41792        -0.033438      0.047872     -0.001163
O	      2.15872      4.11708      4.38674         0.003247     -0.030597      0.037121
O	      4.25064      6.20849      4.24493         0.001102     -0.007733     -0.000893
O	      4.18009      4.18057      6.36236         0.015019     -0.020045     -0.006248
O	      6.23972      6.25036      6.28258         0.051606     -0.019955     -0.037936
O	      6.18672      4.24785      8.40581         0.009000     -0.000429     -0.016287
O	      8.21328      6.33608      8.60296        -0.004304      0.055852      0.303036
O	      1.97993      6.16543      6.40334         0.060020      0.117525     -0.195468
O	      4.22361      8.44949      6.43894         0.014903     -0.038467     -0.031893
O	      4.30119      6.20588      8.55214        -0.011637     -0.044290     -0.015667
O	      6.29583      8.25826      8.43721        -0.021167      0.016455     -0.058189
O	      6.22183      6.26962     10.79790         0.085030     -0.048542      0.049068
O	      8.32728      8.31884     10.52332         0.015677     -0.086220      0.117713
