# total energy = -243.64985908 eV
 
CRYSTAL
PRIMVEC
0.005452 6.378393 6.282238 
6.375458 -0.046984 6.334988 
4.208258 4.245447 0.010695 
PRIMCOORD
36 1
Li	      6.21972      0.14306      6.22022         0.009856      0.009219      0.054075
Li	      8.39351      2.19156      6.22141         0.022383      0.020581      0.000521
Li	      4.54865      6.22706     10.65354         0.004213     -0.047284      0.028966
Li	      6.44914      8.28878     10.67751         0.056598      0.043436      0.038768
Li	      6.25496      2.15867      8.31323         0.043709      0.040649      0.024627
Li	      8.42624      4.39433      8.30183         0.003581      0.028319      0.011168
Li	      8.62242      6.17661      6.40802        -0.026961      0.013361     -0.025512
Li	      6.30937      4.37491     10.40501         0.023692      0.007696      0.020349
Li	      6.47172      6.22649      8.62069        -0.012584      0.029757     -0.004344
Sc	      6.49064      4.09271      6.31970         0.045260     -0.003304      0.010178
Ti	      4.21098      8.43941      8.38268        -0.099597      0.056002     -0.124725
Mn	      2.07077      2.14264      4.17034         0.000036     -0.018211     -0.021259
Cr	      6.31933     10.58876      8.40035        -0.033696     -0.003251      0.002903
Cr	      4.20908      4.22006      4.20397        -0.024667     -0.019530      0.000227
Cr	      8.42045      6.38632     10.52899         0.005979      0.017364      0.004426
Cr	      6.32492      8.47645      6.29977        -0.018769     -0.036711     -0.030014
Cr	      8.49997      8.43429      8.48297        -0.007511      0.027620     -0.036445
Ni	      4.23088      6.36916      6.29121        -0.005622      0.006569      0.013733
O	      2.23761      1.99058      2.20025         0.102128     -0.042797     -0.005813
O	      4.29622      4.05527      2.19997        -0.014458     -0.123140     -0.015259
O	      4.07982      2.20273      4.10162        -0.012164     -0.001808     -0.079533
O	      6.19502      4.20438      4.13491        -0.002400     -0.004958     -0.016727
O	      6.37261      2.13857      6.34432         0.012291     -0.050303      0.006578
O	      8.43921      4.21949      6.34285         0.040408      0.009816     -0.015533
O	      2.18992      4.34290      4.27480        -0.001268      0.008679     -0.004462
O	      4.26448      6.23822      4.20154        -0.010026     -0.007512     -0.076474
O	      4.15683      4.27243      6.30000        -0.028043     -0.100697     -0.001820
O	      6.28093      6.44754      6.11733         0.065377      0.038546     -0.003798
O	      6.23694      4.27401      8.35910         0.027576      0.019430      0.030194
O	      8.46000      6.46367      8.54307        -0.006988     -0.009369     -0.057870
O	      2.18837      6.25044      6.34323        -0.152375     -0.001523     -0.003247
O	      4.30971      8.42595      6.47584         0.000734      0.074761      0.143660
O	      4.15011      6.38919      8.42324        -0.002191      0.031114      0.064224
O	      6.30656      8.54861      8.33556        -0.016856     -0.033533     -0.005950
O	      6.49500      6.33369     10.55104        -0.035398     -0.041365      0.042137
O	      8.50061      8.36917     10.43436         0.047754      0.062375      0.032049
