# total energy = -249.99619109 eV
 
CRYSTAL
PRIMVEC
0.043565 6.295697 6.361597 
6.254796 0.039250 6.366140 
4.200633 4.230937 -0.004667 
PRIMCOORD
36 1
Li	      6.16534      4.38596      2.24556         0.043693      0.036379     -0.005348
Li	      4.09364      2.21124      2.11139         0.010510     -0.018943     -0.034354
Li	      6.23457      2.21096      4.26327        -0.011700     -0.002903     -0.028936
Li	      0.19485      2.04522      2.10061        -0.107983      0.003335     -0.018188
Li	      2.12997      4.05731      2.25283         0.000105      0.036581      0.052894
Li	      2.09583      2.10953      4.04818        -0.029575      0.008234     -0.079109
Li	      6.29521      4.20166      6.30708         0.005429      0.018193      0.016529
Li	      0.12929      4.18128      4.22362         0.063357     -0.007439      0.007674
Li	      6.28820      8.38733      6.31652        -0.031504     -0.019040     -0.028440
Sc	      8.39707      8.46056      8.48574        -0.016049     -0.006850     -0.023776
Ti	      6.29936      6.34256      8.49378         0.017477      0.033853     -0.028970
Mn	      4.24271      4.15899      0.17871         0.054070     -0.042054      0.047676
Cr	      8.31012      2.19219      6.41406        -0.041556     -0.001666     -0.000306
Cr	      8.27457      4.30569      4.21909         0.015370      0.007772      0.006947
Cr	      4.23118      4.19628      4.18521         0.044490     -0.003371      0.003481
Cr	      4.21251      2.10718      6.35367         0.009648     -0.007210      0.028197
Cr	      2.13985      6.27437      4.23035         0.010824     -0.015010      0.024686
Cr	      4.24635      6.37025      6.32403        -0.002581      0.006501     -0.022903
O	      2.09104      2.14009      1.96612         0.040517     -0.047359      0.036521
O	      4.22049      4.19624      2.24074        -0.040312      0.042142      0.079698
O	      4.15701      2.10723      4.39150         0.007812      0.003147     -0.042299
O	      6.31673      4.26666      4.20817        -0.014800      0.010690      0.060121
O	      6.21860      2.09609      6.39906         0.018392      0.108130     -0.043954
O	      8.35690      4.28474      6.19414        -0.087275     -0.020898      0.017444
O	      2.22584      4.33243      4.26281        -0.038305     -0.037001      0.015926
O	      4.14788      6.23288      4.34352         0.018723      0.044156     -0.018493
O	      4.21948      4.19785      6.34309        -0.021351      0.009814     -0.012425
O	      6.30825      6.35049      6.50127        -0.009521     -0.054761      0.103120
O	      6.24328      4.39692      8.50564         0.005369      0.121946      0.029074
O	      8.31270      6.36238      8.48514        -0.053837     -0.016809     -0.005078
O	      2.21500      6.41773      6.22621         0.084454     -0.019610     -0.013681
O	      4.12483      8.33999      6.32730         0.039820     -0.063714     -0.045604
O	      4.27768      6.32478      8.46908         0.051956      0.027444      0.021526
O	      6.34975      8.27352      8.46416        -0.004057     -0.157550      0.018718
O	      6.30248      6.32675     10.50038        -0.032034      0.043248     -0.129628
O	      8.37335      8.49045     10.61385         0.000425     -0.019376      0.011257
