# total energy = -245.40627254 eV
 
CRYSTAL
PRIMVEC
0.016631 6.364748 6.229955 
6.418455 -0.004513 6.251152 
4.278451 4.256707 -0.002681 
PRIMCOORD
36 1
Li	      0.15312      6.29415      6.23571         0.003200      0.032490      0.050638
Li	      6.47183     10.59171      8.36741        -0.024583      0.003478      0.002280
Li	      4.26711      2.13235      2.07729         0.017038     -0.015659     -0.048578
Li	      8.33466      4.34845      4.08961        -0.002841     -0.036006     -0.047485
Li	      4.33105      6.29478      2.12338         0.035880     -0.044488     -0.044066
Li	      6.47316      6.23976      4.19354        -0.048610     -0.003696     -0.018284
Li	      4.41563      4.21006      4.17006        -0.048344      0.063833     -0.025349
Li	      2.09741      4.36417      6.24668         0.003357      0.020191      0.067045
Li	      4.18017      6.40490      6.21106         0.007273      0.007819      0.022361
Sc	      6.32293      6.47026      8.29516        -0.032227      0.246218     -0.124396
Ti	      2.34483      4.09504      2.12174         0.648971     -0.180129      0.003108
Mn	      4.30586      2.10791      6.16232         0.093517      0.014923      0.256371
Mn	      2.21462      6.35018      4.20064         0.136918     -0.119100      0.017110
Cr	      2.17344      8.47460      6.23051        -0.080088     -0.015886      0.067393
Cr	      6.39340      4.24331      6.19940        -0.013611     -0.116334      0.075238
Cr	      4.29271      8.47544      4.18401         0.112004      0.028722      0.024797
Cr	      4.26613      4.32003      8.30265        -0.101818     -0.029725     -0.090016
Co	      6.37034      2.16650      4.16167        -0.454533      0.081054     -0.082301
O	      2.14752      2.22289      2.00857         0.010716      0.229051      0.024116
O	      4.13802      4.23733      2.09881        -0.680534     -0.059274      0.022332
O	      4.27587      2.05520      4.30557         0.423263      0.036076     -0.201064
O	      6.38602      4.16830      4.24751         0.062028      0.342007     -0.046821
O	      6.43984      2.20985      6.19909         0.020247      0.026061      0.851349
O	      8.43968      4.17411      6.38696        -0.006287     -0.003347      0.046814
O	      2.03188      4.23227      4.02164        -0.053207     -0.041894     -0.080199
O	      4.11705      6.49013      4.13580        -0.036195     -0.007419      0.015371
O	      4.38519      4.24047      6.33160         0.018254     -0.024601     -0.038517
O	      6.54863      6.25958      6.23562         0.047316      0.012913     -0.011129
O	      6.36027      4.29775      8.33052         0.039759     -0.001243      0.060900
O	      8.54513      6.37910      8.24483        -0.002181     -0.005974     -0.010842
O	      2.14238      6.49658      6.15518         0.016686     -0.017030     -0.033177
O	      4.17623      8.52371      6.13871        -0.011184      0.002423     -0.021481
O	      4.31923      6.28924      8.32904         0.029150      0.006515      0.019537
O	      6.53415      8.51654      8.34213         0.145207     -0.193522     -0.723530
O	      6.65504      6.33767     10.37923         0.003995     -0.276243      0.058342
O	      8.67700      8.53252     10.39326        -0.278540      0.037794     -0.037867
