# total energy = -90.56219471 eV
 
CRYSTAL
PRIMVEC
-2.179602 4.338227 -2.176596 
2.152030 4.310471 2.148862 
2.207015 0.013844 -6.529427 
PRIMCOORD
16 1
Li	      0.09422      4.55497     -4.67408         0.458499     -0.033266      0.339582
Li	      2.24187      6.81896     -4.55456        -0.143852     -0.413850      0.127440
Li	     -0.00254      4.54048     -0.23823        -0.253021      0.042561      0.638143
Li	      2.29936      2.27892     -4.57230        -0.042665      0.413183      0.030361
Mn	      0.17983      0.21872     -0.17898        -3.213008     -0.051201      1.854484
Mn	     -0.00224      6.81951     -2.31378         0.904839     -1.872400      0.058572
Ni	      0.01681      2.28070     -2.30351         0.350169      0.616007     -0.108267
Ni	      2.31269      4.54384     -2.33890         0.022073      0.095913     -1.669982
O	      0.00722      4.56648     -7.02259         0.348632     -0.079241      1.553381
O	     -0.04118      2.47010     -4.41674        -1.149799     -0.986594      0.680969
O	      2.45962      4.54843     -4.57626         0.566123      0.097750      0.471445
O	      2.24598      4.42270      0.05700        -0.093393      0.294944     -1.932326
O	      2.23830      2.30518     -2.14335        -1.055662      1.245563      0.892023
O	      0.02328      6.95057     -0.14600         1.060246     -0.837054     -1.600517
O	     -0.08810      4.66175     -2.27429         1.162495      0.452583      0.283589
O	      0.12027      2.13493     -0.05078         1.078325      1.015101     -1.618896
