# total energy = -242.45650547 eV
 
CRYSTAL
PRIMVEC
-0.031763 6.336159 6.214061 
6.418730 -0.038824 6.221254 
4.259144 4.209065 -0.006030 
PRIMCOORD
36 1
Li	     10.50403      4.27105      6.21581        -0.009407      0.004491      0.041985
Li	      8.44230      2.21061      6.23066        -0.048133     -0.056191      0.017566
Li	      2.23243      4.13150      1.95354         0.036735      0.003974      0.011413
Li	      6.34344      6.31295      4.12158        -0.004759     -0.031999      0.040321
Li	      4.26954      4.22107      4.11797         0.012494     -0.039757      0.030604
Li	      4.40678      1.95952      6.18180         0.019084      0.048462      0.041091
Li	      6.52655      4.06065      6.21181        -0.004737     -0.024731      0.025158
Li	      4.20158      8.36647      4.16498        -0.014964      0.031243      0.028715
Li	      2.16628      6.39178      4.16554        -0.027726      0.048255      0.038662
Sc	      6.51408      6.20127      8.33072         0.098896     -0.081884     -0.051221
Ti	      2.10697      4.20571      5.97900         0.009860      0.020985     -0.429425
Mn	      6.35278      4.20757      2.07383        -0.035016      0.065083     -0.145416
Mn	      4.23414      6.31173      2.10932        -0.005454     -0.080755     -0.010386
Cr	      4.24411      2.13903      2.09624         0.002445      0.028260     -0.164148
Cr	      8.53115      4.19539      4.24565        -0.050836      0.009711      0.063807
Cr	      4.25036      6.32064      6.10034         0.002213     -0.008579     -0.035775
Cr	      8.50581      8.40396      8.29645        -0.005692     -0.005676     -0.148426
Cu	      6.40439      2.07910      4.30141        -0.006117     -0.004537      0.063459
O	      2.24628      1.97935      2.10178         0.051445     -0.060434      0.011088
O	      4.26336      4.11999      2.09133        -0.035633      0.013667     -0.013097
O	      4.37015      2.01110      4.07431        -0.047868     -0.007882      0.114026
O	      6.49137      4.10496      4.01325         0.051287      0.071103      0.066918
O	      6.41519      2.07110      6.47162         0.005283     -0.003753     -0.042123
O	      8.48894      4.20041      6.15738         0.019050     -0.029065      0.001541
O	      2.08383      4.26640      4.19902        -0.004066     -0.038207      0.370926
O	      4.24361      6.32283      4.11936         0.005483     -0.008319      0.055176
O	      4.11440      4.30044      6.26056        -0.070944     -0.002505     -0.008420
O	      6.28078      6.44516      6.19852        -0.014476      0.076146      0.051332
O	      6.23962      4.18843      8.31927        -0.056692      0.093997      0.017058
O	      8.51808      6.43168      8.31180        -0.152182      0.009997      0.007530
O	      2.22297      6.22211      6.31232         0.027757     -0.011434     -0.048549
O	      4.36434      8.34338      6.27034         0.100230      0.006072     -0.011436
O	      4.31206      6.31454      8.23868         0.084704     -0.005726      0.028734
O	      6.38139      8.45237      8.15706         0.003599      0.033964     -0.118248
O	      6.27446      6.40096     10.36890        -0.014601     -0.067236     -0.009357
O	      8.40690      8.50300     10.28648         0.078739      0.003260      0.108914
