# total energy = -246.94843779 eV
 
CRYSTAL
PRIMVEC
-0.001146 6.301253 6.354537 
6.380673 -0.006084 6.359519 
4.250610 4.200974 -0.000926 
PRIMCOORD
36 1
Li	      8.52081      8.43160     12.67073         0.018076      0.013764      0.003852
Li	      4.22868      2.16904      2.22392         0.011750      0.031021     -0.000533
Li	      6.33280      2.16239      4.23888         0.000091      0.018541     -0.000855
Li	      2.17735      4.17888      2.28078         0.002249      0.013841     -0.024503
Li	      2.24293      2.21562      4.21051        -0.024463     -0.061013     -0.000075
Li	      4.07287      4.07138      4.22381        -0.070023      0.015738     -0.006627
Li	      6.42462      4.17698      6.26996         0.028980     -0.013658     -0.041351
Li	      2.10470      6.16653      4.22092        -0.013628      0.014389     -0.016593
Li	      2.12523      4.19031      6.22244        -0.026898      0.012120      0.040060
Sc	      4.27165      6.27778      6.25154        -0.037771      0.000546     -0.027213
Ti	      0.12595      2.05409      2.13123         0.281904     -0.214275     -0.125337
Mn	      4.27973     10.44980      6.34781         0.011894      0.015827     -0.000377
Mn	      6.37134      4.15035      2.17126        -0.042129      0.013476     -0.025722
Cr	      4.23170      0.03860      4.23727         0.028637      0.019594      0.052471
Cr	      4.21599      2.11895      6.30985         0.034236     -0.034545     -0.021249
Cr	      0.05283      4.20162      4.24273        -0.015250      0.015748      0.038311
Cr	      6.40711      6.30981      8.46942         0.017403      0.010924      0.026380
Fe	      8.47379      8.35181      8.50353         0.046804      0.073463     -0.020461
O	      1.97813      2.05794      2.10891        -0.284523     -0.039338      0.022121
O	      4.22393      4.34220      2.18642        -0.009656      0.170166      0.040680
O	      4.25966      2.04615      4.31690         0.003335      0.003478      0.021224
O	      6.50529      4.19090      4.06454         0.013444      0.026516     -0.031085
O	      6.25892      2.13593      6.55817        -0.002208      0.032327      0.134101
O	      8.49571      4.30474      6.21373        -0.036269      0.004366      0.007908
O	      2.00828      4.21312      4.23595        -0.023176     -0.035293     -0.006883
O	      4.18757      6.37289      4.15268        -0.011412      0.007194     -0.053574
O	      4.27694      4.17166      6.44072        -0.010652     -0.009980     -0.010098
O	      6.41392      6.27607      6.46681         0.001396      0.004902      0.035912
O	      6.32363      4.18406      8.55814         0.031495     -0.002522      0.007743
O	      8.46004      6.35203      8.39956        -0.012871     -0.074198     -0.000527
O	      2.18230      6.27916      6.57124         0.060087      0.008734      0.024077
O	      4.22914      8.33510      6.26099        -0.008836     -0.064986     -0.032728
O	      4.35811      6.26405      8.47807         0.042910      0.027458      0.011053
O	      6.47231      8.36573      8.52162        -0.035997      0.010502      0.009081
O	      6.32331      6.24085     10.50233        -0.011556     -0.019127     -0.095747
O	      8.58905      8.49193     10.50077         0.042630      0.004301      0.066567
