# total energy = -243.21010606 eV
 
CRYSTAL
PRIMVEC
0.010130 6.362236 6.344401 
6.266669 -0.011634 6.366137 
4.167101 4.245162 0.003009 
PRIMCOORD
36 1
Li	      2.04323      2.18137      0.11894         0.002516      0.030431      0.024454
Li	      4.08345      2.21489      2.15554         0.043663     -0.000693      0.041798
Li	      4.24541      6.37849      2.20733        -0.000936     -0.013543      0.026849
Li	      2.17480      4.06680      2.18435         0.006849      0.043861      0.007057
Li	      2.01984      2.20317      4.09712         0.008112      0.005692      0.022475
Li	      4.09229      4.34245      4.20758         0.011596      0.032056     -0.038361
Li	      6.20299      4.16838      6.35305        -0.046037      0.006604     -0.031504
Li	      4.21432      6.31063      6.19439        -0.001516     -0.054499     -0.014466
Li	      4.19282      4.20008      8.42776         0.004047     -0.011198     -0.032590
Sc	      2.09038      0.14416      2.12403        -0.018803      0.021759      0.021832
Ti	      6.26501      6.24389      8.37281         0.016686     -0.264599     -0.187684
Mn	      4.16204      4.26330      0.11026         0.062838      0.013116      0.022614
Mn	      2.09791      4.21691      6.31651        -0.005035      0.037076      0.010481
Cr	      8.35486      4.23007      4.27374        -0.035386     -0.010218     -0.004484
Cr	      6.29218      8.49140     10.57143         0.003495      0.029228      0.005060
Cr	      4.19860      2.12924      6.37676         0.003179     -0.003723     -0.031700
Cr	      4.18051      8.41910      4.22783         0.010019     -0.033084     -0.007740
Ni	      2.15676      6.36830      4.20193        -0.049336     -0.012527     -0.003990
O	      2.10969      2.08488      2.12255         0.033291      0.034686     -0.002211
O	      4.21086      4.25295      2.09084         0.005773      0.001808      0.099437
O	      4.28163      1.99207      4.35808        -0.048263     -0.017656     -0.009108
O	      6.37432      4.10957      4.23434        -0.017669      0.015721      0.023489
O	      6.19127      2.12039      6.23329         0.029241     -0.068168      0.015243
O	      8.50709      4.31423      6.29920        -0.054799     -0.007591      0.028923
O	      2.01376      4.28585      4.31230        -0.014162     -0.066661     -0.020263
O	      4.13104      6.48091      4.23568         0.181557      0.008102      0.007060
O	      4.00612      4.12710      6.32270         0.070679      0.002698     -0.009352
O	      6.30191      6.27912      6.48400        -0.018592     -0.014439      0.160534
O	      6.24881      4.36571      8.57077         0.014648      0.187194     -0.039053
O	      8.20957      6.38437      8.44391        -0.107677     -0.014946     -0.108487
O	      1.95846      6.37296      6.34313        -0.028602      0.057551      0.096880
O	      4.30931      8.51657      6.23096        -0.009762      0.036335      0.029828
O	      4.27667      6.35208      8.58496         0.075925     -0.026169     -0.007709
O	      6.24809      8.39580      8.49176         0.029034     -0.040338      0.016220
O	      6.27474      6.37325     10.54161        -0.117710     -0.006259     -0.074643
O	      8.36567      8.53117     10.63368        -0.038863      0.102395     -0.036885
