# total energy = -247.92262225 eV
 
CRYSTAL
PRIMVEC
-0.000441 6.383208 6.290851 
6.350191 -0.009439 6.299968 
4.226433 4.254377 0.000777 
PRIMCOORD
36 1
Li	     10.46732      4.34266      6.31038        -0.027955      0.023706     -0.007397
Li	      8.37165      2.22115      6.32503        -0.047813      0.067202      0.031449
Li	      8.36870      4.36516      4.41421         0.034964      0.054431      0.011566
Li	      0.06040      2.05003      2.03821        -0.030750      0.002483     -0.035206
Li	      6.34113      6.20860      4.24868        -0.063405      0.032794      0.003032
Li	      4.37620      4.26602      4.15840         0.020842      0.007584     -0.004506
Li	      8.49590      6.22426      6.19071         0.060845      0.038048     -0.015078
Li	      6.47545      4.25538      6.16677        -0.030625     -0.014529     -0.005934
Li	      4.25366      6.39875      6.18932         0.003803      0.000241      0.012378
Sc	      2.10883      4.18345      6.19954        -0.023453     -0.054730     -0.019436
Ti	      4.33917      4.29296      8.28573         0.014235      0.104025     -0.319444
Mn	      6.28322      2.19656      4.35879         0.034348      0.032009      0.016694
Mn	      4.14540      2.13840      2.12323         0.024339     -0.016563     -0.031698
Cr	      2.02321      0.12811      2.07762         0.037599     -0.039209     -0.006348
Cr	      8.51411      4.22736      8.30903        -0.010969     -0.050120      0.043344
Cr	      4.17945      8.48634      4.26338        -0.019793     -0.008621      0.039229
Cr	      2.13115      6.39368      4.25971        -0.002256     -0.017019      0.027673
Cr	      6.35074      6.37376      8.38694        -0.037645     -0.004404     -0.025762
O	      2.06531      2.13735      2.10443        -0.074650      0.029464     -0.017747
O	      4.21698      4.27753      2.10037         0.005514      0.088097     -0.017785
O	      4.37275      2.10116      4.18993         0.044869      0.028609      0.049992
O	      6.35527      4.28484      4.02003         0.039286      0.002040      0.034526
O	      6.33069      2.15235      6.18400         0.037269     -0.016554      0.022324
O	      8.44842      4.23910      6.43263         0.010997      0.043041     -0.024916
O	      2.01879      4.33636      4.13968        -0.026555      0.003466      0.004456
O	      4.09386      6.50990      4.19765        -0.012625      0.007971     -0.002852
O	      4.22334      4.21174      6.47834         0.033442      0.009995      0.327837
O	      6.33359      6.41296      6.42329         0.024257     -0.002113      0.007698
O	      6.32113      4.33930      8.47260        -0.110034     -0.005704      0.042227
O	      8.37129      6.37153      8.50123        -0.011268      0.039507     -0.002369
O	      2.14044      6.29888      6.31524        -0.004603     -0.045162      0.000064
O	      4.28410      8.48646      6.24705         0.016768     -0.029176     -0.051532
O	      4.24453      6.21408      8.41349         0.018866     -0.214004     -0.056295
O	      6.48043      8.47990      8.44028         0.094377     -0.014529     -0.034225
O	      6.43198      6.28490     10.40726        -0.029642     -0.060023      0.010138
O	      8.46721      8.39323     10.40337         0.007422     -0.022251     -0.006101
