# total energy = -210.75065722 eV
 
CRYSTAL
PRIMVEC
0.065815 6.283677 6.195359 
6.310739 0.057305 6.203818 
4.234220 4.221782 0.011107 
PRIMCOORD
36 1
Li	      8.32229      2.13711      6.13663         0.030299      0.056215      0.043054
Li	      8.49271     10.49567     10.35983        -0.025220      0.054857      0.008624
Li	     10.49886      6.37886      8.29328        -0.056843      0.007503      0.040948
Li	      6.37618      6.36058      4.18941         0.002238     -0.004046      0.012194
Li	      4.29850      2.24381      6.15480        -0.032993     -0.042677      0.063676
Li	      6.25833      4.11413      6.09952         0.015746      0.040167      0.028301
Li	      8.46831      6.40250     10.30384         0.050270     -0.040910     -0.042733
Li	      2.20113      4.23375      6.10719        -0.015186     -0.006130     -0.017806
Li	      8.51965      8.39289      8.30626         0.007854     -0.092575     -0.037986
Sc	      4.19126      6.25641      6.16256         0.069288      0.127235     -0.078242
Ti	      6.47213      6.40707      8.20991         0.331604      0.126836     -0.251330
V	      8.39007      4.15245      8.21775        -0.096629     -0.196776     -0.053131
Co	      4.23015      2.14381      2.08359        -0.103723     -0.096412     -0.208507
Cu	      6.36384      4.23048      2.12092         0.026160      0.097673      0.051851
Cu	      6.45944      8.43977     10.38133         0.025979     -0.162410     -0.212130
Cu	     10.53408      8.46126     10.38707        -0.098512     -0.029848      0.067692
Ni	      6.44696      6.39237     12.37488        -0.146382     -0.155698      0.052296
Ni	      4.24107      4.22984      4.15990        -0.058426      0.135393      0.001877
O	      8.49053      8.45060     10.33487        -0.005960      0.023758      0.045497
O	      2.12552      2.29060      2.09150        -0.167141     -0.034011     -0.015671
O	      4.08501      4.13455      2.09768         0.046402     -0.103476     -0.020570
O	      4.30588      2.18811      3.96410         0.051029     -0.109930      0.113826
O	      6.29832      4.16496      4.02668         0.157113      0.168575     -0.023850
O	      6.31901      2.09812      6.09209         0.009629      0.156847      0.044153
O	      8.45163      4.27910      6.44358        -0.034192     -0.011821     -0.043411
O	      2.14283      4.22107      3.98193        -0.013411      0.018437      0.011875
O	      4.25282      6.38648      4.12691        -0.014196     -0.043194      0.036217
O	      4.24380      4.25445      6.16390         0.010262     -0.016985      0.244239
O	      6.33342      6.31819      6.36018         0.028607      0.029830      0.183603
O	      6.47874      4.31546      8.36712        -0.158867      0.092240     -0.130069
O	      8.36987      6.20723      8.26735        -0.191591      0.065868      0.010105
O	      2.14914      6.30490      6.38899         0.037437      0.015873     -0.063188
O	      4.30691      8.47450      6.29707         0.026301     -0.055962      0.040353
O	      4.36423      6.47935      8.28877         0.142271      0.154711      0.058495
O	      6.42898      8.31388      8.36572         0.155757     -0.168991      0.121612
O	      6.36591      6.28001     10.30613        -0.004977     -0.000166     -0.081864
