# total energy = -209.54467229 eV
 
CRYSTAL
PRIMVEC
0.023061 6.061443 6.521677 
6.121173 0.003965 6.541994 
4.092801 4.065456 -0.009735 
PRIMCOORD
36 1
Li	      8.16137      8.09204     13.03020        -0.021227      0.078538      0.024700
Li	      4.09458      2.03974      2.30389        -0.227344      0.056981      0.028261
Li	      6.11646      2.03349      4.37427         0.008051     -0.003473      0.248062
Li	      2.03641      3.94820      2.32290         0.012842     -0.076924     -0.018291
Li	      2.05653      2.08084      4.29517        -0.017050     -0.045034     -0.196481
Li	      4.07420      2.05856      6.38956         0.106783     -0.075755     -0.120122
Li	      2.09438      6.05709      4.36586         0.007584      0.035495      0.066926
Li	      2.06182      4.02196      6.43904         0.020280      0.077914     -0.204298
Li	      8.23456      8.07450      8.84716         0.183804      0.032506      0.088788
Sc	      6.23600     10.09671      8.77234        -0.227323      1.201171     -0.088914
Ti	      4.11085     10.03384      6.55195        -0.326314     -0.081571      0.273607
V	      6.25730      6.13282      8.64870        -0.046401      0.284550     -0.781954
Co	      6.12085      4.01457      6.48521         0.334176      0.064144     -0.114595
Cu	      4.11290      0.03538      4.38419        -0.243027      0.235644      0.197350
Cu	      6.12675      2.07075      8.67028         0.104299     -0.206937      0.031306
Cu	      3.95760      4.00896      4.37744         0.095742      0.152133     -0.069420
Cu	      0.05111      3.99649      4.33799        -0.017848     -0.263636      0.071498
Cu	      4.06583      6.14469      6.48820        -0.365976      0.080240     -0.130254
O	      4.19176      4.18723      6.35571         0.573935     -0.143539      0.256737
O	      8.02376      6.05041      8.70353        -0.817255      0.105888      0.169577
O	      8.37481      8.16186     10.87539        -0.285379     -0.213508     -0.105525
O	      1.96246      1.99779      2.18537         0.439767     -0.274467      0.018095
O	      4.07178      4.13303      2.01677         0.001191     -0.443115     -0.111415
O	      4.07127      2.09326      4.36849         0.066699     -0.374851     -0.051341
O	      6.21730      4.03884      4.38446        -0.406807     -0.046487      0.815451
O	      6.09839      1.98243      6.59268        -0.046612      0.824384     -0.250937
O	      8.20961      4.08864      6.38588        -0.490510     -0.012600      0.250969
O	      1.93909      4.04471      4.38605         0.185989      0.013750      0.000515
O	      4.06749      6.10192      4.13267        -0.020637      0.130572      0.119161
O	      6.04811      6.07420      6.71127         0.448526     -0.696532      1.125202
O	      6.12484      4.03948      8.46412        -0.212358      1.242549     -0.933147
O	      1.98503      6.05838      6.61475        -0.090212     -0.255963      0.106736
O	      4.07911      8.16452      6.64683         0.183297      0.286536      0.098008
O	      4.23409      6.07272      8.88873         0.622978      0.003009     -0.144902
O	      6.18534      8.02574      8.72804         0.081584     -1.830310     -0.014585
O	      6.15255      5.99762     10.91839         0.384754      0.138696     -0.654768
