# total energy = -209.84607574 eV
 
CRYSTAL
PRIMVEC
-0.000630 6.253252 6.201644 
6.310526 -0.043414 6.244594 
4.183514 4.173892 -0.005450 
PRIMCOORD
36 1
Li	      6.25586     -0.01584      6.19342        -0.026002      0.012720      0.012507
Li	      2.11467      8.33233      6.19705         0.037267     -0.019012      0.021648
Li	      4.17369      8.32108      8.16216        -0.032228      0.031280     -0.020701
Li	      6.20936      2.11874      8.22200         0.038208     -0.024629      0.041570
Li	      8.41166      4.13164      8.19270         0.040226     -0.055860      0.037243
Li	      8.54443      6.11225      6.29142         0.018721     -0.032091     -0.000738
Li	     10.40678      8.32224     10.46042        -0.029958     -0.001991      0.035053
Li	      8.39017      6.29039     10.43235         0.025278     -0.005952      0.030218
Li	      2.03077      4.23200      6.20005        -0.025916     -0.002939     -0.069887
Sc	      6.36232      6.20389      8.31583         0.065508     -0.033423     -0.000250
Ti	      2.09226      2.15343      4.06230        -0.048402      0.343090     -0.389749
V	      4.16785      4.13176      4.08412        -0.154824      0.110917     -0.046003
Co	      4.15832      6.29074      6.20326        -0.066465      0.110371     -0.056103
Ni	      2.12205      6.21541      8.22210        -0.126366      0.067792     -0.045755
Ni	      6.35679      8.27250     10.40016        -0.137485     -0.009107      0.007570
Ni	      8.41547      4.10148      4.26980         0.012874      0.102604     -0.122922
Ni	      6.35526      4.08508      6.26575        -0.000515     -0.012218      0.051829
Ni	      8.40936      8.28032      8.29288         0.012883     -0.021163     -0.058526
O	      2.07174      2.02100      2.23148         0.030315      0.114894      0.394257
O	      4.23786      4.18320      2.28890        -0.066236     -0.009420     -0.066488
O	      4.11688      2.15630      4.22219        -0.038691     -0.090250      0.007334
O	      6.24105      4.19470      4.15131         0.033612      0.049118      0.021365
O	      6.33099      2.09380      6.08378         0.013643     -0.137547      0.125341
O	      8.32991      4.14185      6.23072         0.133600      0.011861      0.091715
O	      2.21664      4.05151      4.15775        -0.047153     -0.257862     -0.035346
O	      4.27753      6.17787      4.26146         0.064076      0.049433      0.011865
O	      4.26339      4.29909      6.08979        -0.026902      0.038371      0.044015
O	      6.13008      6.18228      6.15604        -0.029597      0.081417      0.018028
O	      6.23606      4.13540      8.28143         0.073225      0.017568      0.123214
O	      8.37591      6.28407      8.26629        -0.029032     -0.073140     -0.009799
O	      2.31865      6.20567      6.22826         0.090030      0.025229     -0.110068
O	      4.22755      8.11231      6.21475        -0.032918     -0.110776     -0.012483
O	      4.17921      6.17899      8.16503         0.114004      0.037485     -0.002549
O	      6.33551      8.33919      8.42649        -0.061995     -0.130557     -0.041488
O	      6.23163      6.26901     10.38935         0.100893     -0.078928     -0.064739
O	      8.31232      8.38091     10.31490         0.076320     -0.097285      0.078821
