# total energy = -91.95191803 eV
 
CRYSTAL
PRIMVEC
-0.000001 2.059623 2.059524 
4.029608 -0.000005 0.000003 
0.000060 8.470024 -8.469757 
PRIMCOORD
16 1
Li	      2.01295      2.14845     -0.08777        -0.000435      0.006701     -0.006878
Li	      4.02802      2.20101     -2.19955        -0.001062     -0.003601      0.002679
Li	      4.02817      4.25176     -4.25104        -0.001673      0.022528     -0.022736
Li	      4.02781      6.19056     -6.19036        -0.000256     -0.040280      0.041136
Mn	      4.02767      0.05033     -0.04976         0.002019      0.040657     -0.040592
Mn	      2.01334      4.21137     -2.15066         0.000114      0.008760     -0.008591
Ni	      2.01314      6.33289     -4.27279        -0.000224     -0.016218      0.016526
Ni	      2.01293      8.37498     -6.31482        -0.000559     -0.071512      0.071931
O	      2.01304      6.32904     -6.32853         0.000312     -0.005002      0.005209
O	      4.02768      8.60683     -6.54642         0.001255      0.069595     -0.068900
O	      2.01332      4.14017     -4.13915         0.000703     -0.110916      0.110387
O	      4.02798      6.30244     -4.24241         0.000788      0.000278     -0.000098
O	      2.01330      2.26712     -2.26591        -0.001690      0.004399     -0.004332
O	      4.02814      4.18545     -2.12471         0.000519      0.002361     -0.002935
O	      2.01291      8.42766     -8.42694         0.001214      0.100624     -0.100726
O	      4.02776      1.98206      0.07809        -0.001023     -0.008376      0.007922
