# total energy = -89.03582649 eV
 
CRYSTAL
PRIMVEC
-1.958357 4.015232 -1.957677 
1.927648 3.983444 1.926033 
1.944555 0.016471 -5.827225 
PRIMCOORD
16 1
Li	      0.02627      3.81265     -3.74701        -0.405256     -0.133291     -0.944951
Li	      1.79259      3.81028     -5.50959         0.476255     -0.108953     -0.602628
Li	      0.03646      1.91454     -1.89788        -0.161389     -0.612582      0.103202
Li	      1.80273      1.91022     -3.66044         0.306178     -0.589551     -0.293475
Mn	     -1.85861      3.81468     -1.86120        -4.365896     -0.409647      0.454004
Mn	     -0.02033      5.70735     -1.87026        -2.790297      4.628303      1.174057
Ni	      1.83650      5.70631     -3.72624         2.369675      2.440705     -2.788692
Ni	      1.82389      3.80145     -1.85148         2.100225     -2.098549      1.619113
O	     -0.01439      3.77627     -5.66412        -0.313682      0.193983     -1.859901
O	      1.71349      5.65552     -1.87324         3.786616      2.314793      2.107791
O	      1.94676      3.85221     -3.70449         1.270394     -2.172680     -1.354148
O	      1.81791      3.64049      0.04697         0.795131      0.072446      2.120865
O	     -0.01700      5.76163     -3.60322        -1.845677      0.351077     -4.081547
O	     -0.00509      5.85125     -0.08894        -0.222115      0.873759      3.159577
O	     -0.07613      3.95858     -1.84877         0.010316     -3.525226      0.116463
O	      0.05783      1.74890     -0.02302        -1.010479     -1.224587      1.070272
