# total energy = -212.58234663 eV
 
CRYSTAL
PRIMVEC
0.054803 6.557045 6.343847 
6.049687 0.043980 6.357318 
4.049153 4.398146 0.012185 
PRIMCOORD
36 1
Li	      4.04106      4.46827      0.21678         0.009941      0.016441     -0.192871
Li	      4.04734      2.31464      2.16441         0.089141     -0.076492     -0.001977
Li	      4.04005      6.46262      2.34393        -0.026140      0.143799     -0.072248
Li	      1.92098      2.39360      4.29759         0.147524      0.083073      0.087955
Li	      6.01809      4.43545      6.50959         0.010591      0.004062      0.165857
Li	      4.14901      8.48909      4.15764        -0.055849      0.112623     -0.135327
Li	      2.17762      6.51413      4.25047        -0.204205      0.048579      0.013013
Li	      4.09449      6.48784      6.23648         0.021305      0.045981      0.120431
Li	      4.13342      4.42780      8.29487        -0.016936      0.116997      0.068455
Sc	      4.08383      6.55374     10.48692         0.395693     -0.146511     -0.357112
Ti	      6.11770      8.72029     10.58877         0.301782     -0.695833     -0.256829
V	      2.29281      8.77858      6.46061         0.091541      0.186576     -0.833685
Co	      6.10942      8.70448      6.40306        -0.319540     -0.721805      0.022510
Co	      6.10979      6.56368      8.40935        -0.156427      0.691150      0.351564
Cu	      1.95579      0.03775      2.04380         0.373124     -0.131012     -0.161020
Cu	      8.10189      4.51671      8.51432        -0.432205      0.144766     -0.047112
Cu	      4.06620      2.25009      6.37963        -0.157878      0.204349      0.079307
Ni	      4.01533      4.57079      4.25599        -0.021568     -0.150148      0.167741
O	      8.03960      6.49293      8.36906         0.360043     -0.386018     -0.092018
O	      1.98981      2.43402      1.89004        -0.078678      0.412699      0.665661
O	      4.02006      4.39207      2.18410        -0.287257      0.112142     -0.047291
O	      4.07656      2.09514      4.31606        -0.137598      0.124459     -0.028780
O	      6.02882      4.14441      3.98772        -0.165831      0.058151     -0.022754
O	      6.04001      2.21556      6.15360         0.070763      0.032279     -0.066468
O	      8.05734      4.11038      6.21102        -0.022252      0.060005      0.097157
O	      2.02922      4.41887      4.53801        -0.018642     -0.051337      0.377442
O	      4.11413      6.56113      4.23856        -0.025741     -0.084489      0.091373
O	      3.91284      4.46604      6.32446         0.134639     -0.407872      0.069065
O	      6.15878      6.58841      6.54753         0.051308      0.749786     -0.743668
O	      6.15680      4.70114      8.51525         0.342016     -0.847993     -0.127179
O	      2.01889      6.92810      6.47056         0.028275     -0.253304      0.179001
O	      4.05493      8.80451      6.39032         0.127093     -0.056305      0.067061
O	      4.12912      6.54540      8.44978        -0.319357     -0.058618      0.071533
O	      6.11716      8.52475      8.43426         0.056844      0.391223     -0.115775
O	      6.14742      6.77919     10.34612        -0.099870      0.330559      0.470585
O	      8.07533      8.80644     10.73891        -0.065650     -0.001961      0.136404
