# total energy = -212.39651371 eV
 
CRYSTAL
PRIMVEC
-0.004091 6.061171 6.501405 
6.298965 -0.025292 6.524782 
4.169009 4.025702 0.012557 
PRIMCOORD
36 1
Li	      4.16062      3.92621      0.21066        -0.025329      0.028059      0.016202
Li	      2.27017      8.03308      6.63663         0.012575      0.056198     -0.064377
Li	      2.03328      0.09936      2.05368         0.034022     -0.068232      0.045341
Li	      4.09098      8.07961      8.48689         0.057263     -0.018640      0.056719
Li	      0.18462      2.04590      2.11076         0.010186      0.052076     -0.005357
Li	      2.02192      3.95454      2.19842        -0.000951      0.090785     -0.015393
Li	      6.25827      4.07384      6.69347        -0.002060     -0.067676      0.000358
Li	      0.04711      4.04316      4.32200         0.007321      0.044906     -0.045574
Li	      4.27347      4.06583      8.61372        -0.059140     -0.013972      0.042973
Sc	      4.15723      4.05662      4.09347        -0.039992      0.101477      0.008943
Ti	      6.34111      7.97818     10.79548         0.221636      0.195100     -0.179467
V	      8.43454      5.97851      6.72045         0.068852     -0.014143      0.075759
Co	      2.10722      2.04560      4.27372        -0.025927      0.047896     -0.744617
Co	      4.25615      6.04994      6.47465        -0.051978     -0.048239      0.079473
Cu	      8.32787     10.01726     10.87284        -0.092598     -0.190376     -0.007942
Cu	      2.05853      6.02986      4.45063         0.049474     -0.009829     -0.208178
Cu	      2.06095      4.06560      6.50291         0.144151      0.086308      0.024440
Cu	      6.19041      5.97037      8.69788         0.216553      0.196435      0.001836
O	      2.33368      6.01985      6.45610         0.062272     -0.067460      0.323217
O	      4.34059      5.99500      8.38647        -0.085619      0.033414     -0.179110
O	      2.12432      2.00959      2.38404         0.043281      0.016872      0.049382
O	      4.22875      4.05794      2.16749        -0.023343     -0.007761     -0.112861
O	      4.16396      1.95187      4.51207         0.396247      0.086027      0.197982
O	      6.34307      3.94783      4.30903        -0.131990     -0.821586      0.110713
O	      6.02427      2.07387      6.50801         0.046493     -0.028560      0.019010
O	      8.28773      4.23347      6.62958        -0.026511     -0.134303      0.035609
O	      2.10520      4.08663      4.17200         0.052694      0.536870      0.184473
O	      4.33837      6.07808      4.48356        -0.641196     -0.035506      0.135486
O	      4.07817      3.95120      6.43214        -0.093150      0.083258     -0.010857
O	      6.27579      6.09332      6.23339        -0.080252      0.116845      0.052653
O	      6.22172      4.16264      8.68973        -0.023639     -0.267034     -0.075668
O	      8.19769      6.10784      8.51275        -0.136546     -0.014684     -0.212076
O	      4.28562      7.94192      6.51119         0.078216      0.010180      0.007050
O	      6.22697      7.87531      8.94915        -0.043548      0.080234      0.170924
O	      6.11937      6.11208     11.07425         0.157008     -0.133426      0.097628
O	      8.22564      7.99506     10.98640        -0.074475      0.078486      0.125303
