# total energy = -206.54881122 eV
 
CRYSTAL
PRIMVEC
0.071564 6.342860 6.185760 
6.310061 0.066972 6.190575 
4.244903 4.270075 0.006734 
PRIMCOORD
36 1
Li	     10.52633      4.36507      6.24753        -0.043152      0.050684      0.076208
Li	      6.30939      4.40069      2.13982        -0.068421      0.070177      0.004107
Li	      4.10421      2.20296      2.17428        -0.078812      0.056254      0.027979
Li	      4.28751      6.36961     10.24437         0.032733      0.018335      0.025848
Li	      0.16784      2.09434      2.11930         0.022885     -0.024066     -0.040314
Li	      2.15043      4.11550      2.06862         0.014275     -0.043911      0.031419
Li	      2.04702      2.09374      3.97618        -0.009928     -0.000896     -0.016502
Li	      6.35282      4.26393      6.20037         0.019107     -0.036840      0.032687
Li	      6.36534      4.27379     10.21833         0.037554      0.000622     -0.019309
Sc	      8.49268      6.46006     10.23600        -0.116666      0.014455     -0.062034
Ti	      8.50865      6.27160      6.17000         0.226797     -0.632466      0.008322
V	      6.24528      8.57007      6.22770        -0.104933      0.037860      0.102384
Cu	      6.31304      2.21327      4.14190        -0.011841     -0.068723     -0.077524
Cu	      4.30669      6.36465      6.19356        -0.110909      0.181513      0.064063
Ni	      8.36850      2.36696      6.26014         0.056122     -0.006434      0.032288
Ni	      4.29289      4.26235      4.12580        -0.161905      0.018736     -0.055462
Ni	      4.32743      4.32893      8.22803         0.065980     -0.132406      0.060626
Ni	      6.34772      6.35685      8.25428         0.154434     -0.049989     -0.005508
O	      2.13245      2.14712      1.98453         0.013532     -0.059278      0.192135
O	      4.22931      4.28433      2.27579        -0.003850     -0.001886     -0.244372
O	      4.31434      2.17197      4.21791        -0.118916     -0.144339      0.047620
O	      6.22485      4.16827      4.12677         0.156463      0.056230     -0.020774
O	      6.26391      2.17786      6.13653        -0.207954     -0.031004      0.258387
O	      8.45686      4.41821      6.19719         0.021698      0.554785     -0.035155
O	      2.21117      4.27278      4.32146        -0.023583      0.038656     -0.012335
O	      4.25205      6.36230      4.25908         0.069900      0.108410      0.144947
O	      4.14442      4.17862      6.10839        -0.012220      0.096097      0.077320
O	      6.53627      6.57004      6.17196         0.107132     -0.000895     -0.127330
O	      6.30447      4.37962      8.26215         0.152973     -0.153907     -0.018406
O	      8.49309      6.50643      8.16223         0.051930     -0.062881     -0.037816
O	      2.12050      6.14136      6.20298         0.014285     -0.010420     -0.017421
O	      4.45868      8.50299      6.19173         0.003319     -0.129279     -0.008317
O	      4.34866      6.31608      8.11060        -0.162449      0.192602     -0.189408
O	      6.49108      8.44432      8.09046        -0.051593      0.088854     -0.188426
O	      6.41558      6.52102     10.26747        -0.005554      0.018966      0.084178
O	      8.41053      8.54686     10.39749         0.071569     -0.013613     -0.094104
