# total energy = -207.08463367 eV
 
CRYSTAL
PRIMVEC
0.052068 6.234093 6.271933 
6.218894 0.058893 6.264594 
4.192545 4.197526 -0.007026 
PRIMCOORD
36 1
Li	      6.33194      6.39933     12.42806         0.116689     -0.008662      0.006202
Li	      8.29721      8.31642     12.51299         0.001113     -0.025056     -0.007214
Li	      6.24527      2.09878      4.26502         0.043227     -0.017855     -0.004860
Li	      6.23027      6.38333      4.25276         0.043514      0.033574      0.013766
Li	      4.10485      4.26026      4.28188        -0.104297      0.009273     -0.106112
Li	      6.14403      4.20765      6.29972         0.021214     -0.001693      0.024403
Li	      2.17464      6.19280      4.22974        -0.077579     -0.023626      0.034928
Li	      2.16075      4.15649      6.14791        -0.052801      0.044113     -0.068357
Li	      4.24045      4.10615      8.28050        -0.014412      0.048654      0.005164
Sc	      2.13840      6.23480      8.28097        -0.009133     -0.112452     -0.095172
Ti	      4.22793      8.38089      8.29864         0.124485      0.003115     -0.301305
V	      8.28908      4.18570      4.38353        -0.023106     -0.018944     -0.208755
Ni	      6.18405      2.21403      8.34126         0.095322     -0.087025     -0.095995
Ni	      0.05820      4.16360      4.17029        -0.076395      0.216766      0.168654
Ni	      8.30220      4.25517      8.39932         0.119169     -0.060919     -0.126927
Ni	      4.17912      2.23139      6.24455        -0.190006      0.081822     -0.122178
Ni	      4.23489      6.21715      6.19851        -0.046737      0.196908     -0.198393
Ni	      6.29143      6.27750      8.32525         0.009706      0.078453      0.090484
O	      2.17187      2.09550      2.08538         0.017599     -0.090940      0.067434
O	      4.18655      4.09744      2.11578         0.109915     -0.080163      0.071804
O	      4.19042      1.93319      4.12938        -0.019024      0.030468      0.014009
O	      6.50080      4.16723      4.14569        -0.021609     -0.005120      0.079795
O	      6.19401      2.13008      6.38113         0.032543      0.055012     -0.006050
O	      8.36661      4.28040      6.13470         0.038863     -0.014229      0.191506
O	      1.94132      4.18209      4.13739         0.155290      0.031510      0.105693
O	      4.20747      6.43779      4.06890        -0.048197     -0.223535      0.073860
O	      4.17919      4.31888      6.20210        -0.019182     -0.628392      0.031895
O	      6.16655      6.26800      6.31825         0.530898      0.002686     -0.115379
O	      6.29869      4.22820      8.37414        -0.152424     -0.119584     -0.117452
O	      8.33640      6.27982      8.25051         0.072957      0.168449      0.056046
O	      2.29998      6.25520      6.26377        -0.427287     -0.026119      0.121207
O	      4.22446      8.18792      6.39064         0.005894      0.368673      0.329338
O	      4.21625      6.34995      8.46170        -0.101416      0.060548     -0.012713
O	      6.16538      8.36320      8.41479        -0.133622      0.096731      0.016511
O	      6.14401      6.18240     10.41593         0.009878      0.069425      0.071737
O	      8.50806      8.58967     10.45401        -0.031050     -0.051865      0.012427
