# total energy = -220.55108356 eV
 
CRYSTAL
PRIMVEC
0.018991 6.095002 6.239122 
6.486856 0.033687 6.224101 
4.348664 4.077124 -0.000792 
PRIMCOORD
36 1
Li	      4.29571      4.04768      0.11280        -0.164698      0.131510      0.049155
Li	      6.37359      4.09994      2.07425        -0.067339      0.080195     -0.027988
Li	      4.27580      2.19562      2.04216        -0.113688      0.050540      0.132190
Li	      2.24134      4.03935      2.09205         0.141130     -0.094102     -0.254283
Li	      2.16725      2.13983      4.08657         0.134112     -0.176399     -0.157122
Li	      4.39312      4.07280      4.10205         0.164665     -0.065422     -0.002193
Li	      6.52970      4.05474      6.18956         0.142475     -0.049649     -0.149903
Li	      2.10207      4.10191      6.17836         0.133511      0.148862      0.187226
Li	      4.37172      4.04103      8.24726        -0.106352     -0.050894     -0.022653
Sc	      8.58218      4.09110      4.11397        -0.361613      0.269464      0.657004
Ti	      4.33146      6.03341      6.24029        -0.570831     -0.921621      0.222154
Ti	      6.61786      6.10611      8.24140         0.281033      0.685802     -0.410100
Fe	      6.37988      2.10460      4.18670        -0.091840      0.143328      0.203928
Co	      0.14822      1.96113      2.06445         0.448700     -0.444210     -0.320279
Co	      4.39833      8.14013      4.20197         0.547400     -0.127590     -0.153997
Cu	      2.19847      6.04218      4.17764         0.149426      0.236740      0.171779
Ni	      2.23054      2.05432      0.05281        -0.401291      0.320715      0.142669
Ni	      4.35352      2.09457      6.23226         0.021275     -0.318985     -0.071402
O	      2.10680      2.06333      1.95692        -0.233573      0.017570      1.217820
O	      4.31592      4.24328      2.12014        -0.053953      0.110742      0.081156
O	      4.38720      2.06319      4.20717         0.054919      0.060271     -0.398778
O	      6.56781      4.00639      4.09667        -0.017623     -0.040860     -0.021972
O	      6.46264      2.05214      6.19878        -0.028171      0.008872     -0.008770
O	      8.66190      4.04407      6.17785        -0.065806      1.044124     -0.338096
O	      1.94194      4.16537      4.18488        -0.728529      0.000305      0.023343
O	      4.48987      6.22674      4.22984         0.205506      0.314110      0.005103
O	      4.30756      4.16479      6.18365         0.061580      0.563348     -0.001337
O	      6.46266      6.09381      6.34700        -0.160688      0.048065      0.295633
O	      6.46224      4.06779      8.46538        -0.119330      0.028852      0.705490
O	      8.55816      6.12496      8.27081        -0.388739     -0.046181      0.425014
O	      2.36827      6.19851      6.25580         0.453576     -1.230098     -0.273770
O	      4.35910      8.08256      6.14060         0.381306      0.149742     -0.585068
O	      4.50591      6.10454      8.20536         0.145132      0.007088     -0.223202
O	      6.53938      8.01596      8.45414        -0.003107     -0.349567     -0.090025
O	      6.40414      6.07427     10.29497        -0.077221     -0.280765     -0.039950
O	      8.79708      8.06787     10.50800         0.288645     -0.223902     -0.968775
