# total energy = -219.53106714 eV
 
CRYSTAL
PRIMVEC
-0.005969 6.384693 6.182280 
6.194834 0.011698 6.163730 
4.150211 4.264195 -0.011962 
PRIMCOORD
36 1
Li	      2.12740      8.44939      6.14952        -0.038545     -0.046517     -0.018515
Li	      8.30711     10.58141     10.27273        -0.096487      0.003438      0.042372
Li	      2.07403      4.23937      2.20768        -0.055224      0.002894     -0.023665
Li	      1.99221      2.19981      4.04088         0.060593     -0.135678      0.040126
Li	      4.03055      4.33426      4.08295         0.092509     -0.000494      0.044982
Li	      4.07190      8.40734      4.09746         0.010961     -0.023604      0.030554
Li	      2.17044      6.42030      4.07335        -0.089672      0.028521      0.028399
Li	      4.06032      6.39729      6.13732         0.005414     -0.061985      0.037019
Li	      8.33414      8.50529      8.26054         0.022579     -0.011403     -0.035265
Sc	      6.37644      8.55669     10.23733        -0.098472      0.324727      0.177371
Ti	      4.14680     10.48721      6.15270        -0.033898     -0.037309     -0.114550
Ti	      4.07969      2.21172      6.12156        -0.132674     -0.038598     -0.353965
Fe	      6.12473      6.29769      8.30477         0.114767     -0.077397     -0.065142
Co	      4.17379      6.39885      2.09041         0.094242      0.075354      0.092787
Co	      6.22093      4.30335      6.11042        -0.045789     -0.274617      0.519012
Ni	      2.11239      0.06868      2.05719         0.091503     -0.114020      0.188082
Ni	      4.05956      2.12024      2.15218         0.002778      0.062571      0.066616
Ni	      2.05060      4.29680      6.11411         0.076740     -0.215384      0.030191
O	      2.01639      4.23561      4.18145        -0.043827      0.036621     -0.229717
O	      1.96413      2.07903      2.03699        -0.330984      0.104927      0.004146
O	      4.19423      4.37937      1.96343        -0.091951      0.124027      0.013475
O	      4.14920      2.15535      4.21092        -0.030557      0.026574      0.276559
O	      6.23871      4.25357      4.25696        -0.032978      0.162038     -0.340942
O	      6.13856      2.12657      6.23789        -0.011020     -0.137519      0.157659
O	      8.39095      4.42342      6.15067         0.027164     -0.008070     -0.002710
O	      4.14748      6.40547      3.90378        -0.075854      0.000665     -0.343021
O	      4.15192      4.13746      6.16355         0.270246     -0.008267     -0.011862
O	      6.27358      6.35517      6.26995         0.169577      0.200568     -0.066474
O	      6.22117      4.22948      8.05036         0.021160      0.016743     -0.213110
O	      8.29421      6.39828      8.11446         0.146669      0.002469      0.060430
O	      1.95473      6.34293      6.20416        -0.145400      0.173757     -0.031790
O	      4.11195      8.64324      6.25811        -0.082710      0.191076     -0.102357
O	      4.18793      6.45712      8.22411        -0.070001     -0.082063      0.015593
O	      6.13760      8.48266      8.19552         0.105288     -0.034367      0.042799
O	      6.21917      6.43867     10.32606         0.003975     -0.137092      0.095893
O	      8.28305      8.55316     10.28648         0.189877     -0.092585     -0.010980
