# total energy = -89.93356266 eV
 
CRYSTAL
PRIMVEC
-1.968664 4.036365 -1.967981 
1.937794 4.004410 1.936170 
1.954790 0.016558 -5.857895 
PRIMCOORD
16 1
Li	      0.02654      3.85289     -3.78655        -0.342498     -0.098767     -0.833914
Li	      1.81151      3.85050     -5.56774         0.398861     -0.090845     -0.512420
Li	      0.03684      1.93475     -1.91791        -0.140967     -0.538789      0.101483
Li	      1.82176      1.93038     -3.69908         0.264938     -0.505050     -0.252869
Mn	     -1.87822      3.85494     -1.88085        -3.799533     -0.345202      0.418866
Mn	     -0.02054      5.76759     -1.89000        -2.366161      4.013516      0.991195
Ni	      1.85588      5.76653     -3.76557         2.014991      2.076113     -2.386009
Ni	      1.84314      3.84157     -1.87102         1.791353     -1.775121      1.403531
O	     -0.01454      3.81613     -5.72390        -0.215309      0.189639     -1.701807
O	      1.73157      5.71521     -1.89301         3.220713      2.006169      1.813063
O	      1.96731      3.89287     -3.74359         1.127905     -1.876606     -1.182710
O	      1.83710      3.67891      0.04747         0.710992      0.048804      1.893025
O	     -0.01718      5.82244     -3.64126        -1.576303      0.262522     -3.479998
O	     -0.00514      5.91301     -0.08987        -0.183530      0.779763      2.697109
O	     -0.07694      4.00036     -1.86828        -0.061144     -3.033282      0.088159
O	      0.05844      1.76736     -0.02327        -0.844310     -1.112863      0.943297
