# total energy = -224.47310894 eV
 
CRYSTAL
PRIMVEC
0.059330 6.109233 6.157656 
6.561940 0.042468 6.173700 
4.395335 4.103593 0.008190 
PRIMCOORD
36 1
Li	      6.61549      0.12725      6.17853        -0.053087      0.029518      0.014531
Li	      2.30135      6.12317      8.22722         0.084415     -0.015445     -0.002157
Li	      4.40787      6.09301      2.11806        -0.108366      0.011767     -0.082606
Li	      4.40222      4.24910      4.10132        -0.040074     -0.045275      0.104654
Li	      6.53834      4.12674      6.18410         0.014407      0.019292      0.049083
Li	      2.36461      6.14122      4.12952         0.107366      0.039145     -0.008804
Li	      4.43855      6.04398      6.12490         0.018368     -0.059166      0.021114
Li	      4.41532      4.12980      8.20155         0.018938     -0.037987     -0.068990
Li	      6.57316      6.15094      8.18974         0.022506     -0.060815     -0.070969
Sc	     10.95161      8.19794     10.29860        -0.024772      0.044090     -0.056147
Ti	      4.46294      8.13726      8.17294         0.170360     -0.115348     -0.189283
Ti	      8.75805      4.20121      8.19774        -0.300879      0.603398     -0.450891
Fe	      2.33154      4.17903      6.18418         0.433885     -0.224197     -0.021489
Co	      8.74102      4.11199      4.14262        -0.019914     -0.000006      0.006309
Co	      6.54262      2.07945      4.11999        -0.003211      0.008868      0.181597
Co	      4.39173      2.16078      6.14602        -0.196988     -1.005239     -0.028941
Cu	      8.64296      2.00069      6.18645         0.062568     -0.075594     -0.084414
Ni	      6.53816      6.07697      4.14088        -0.050467     -0.078557      0.005206
O	      2.32492      2.07616      1.98124         0.037947     -0.109464      0.059947
O	      4.21199      3.96238      2.09960        -0.038961     -0.047077      0.054717
O	      4.26358      1.93461      4.07480         0.064733      0.112997      0.566595
O	      6.80057      4.00784      4.11394         0.093743     -0.121026     -0.011286
O	      6.39530      2.10682      5.99173        -0.781874      0.121602      0.022363
O	      8.75596      4.13267      6.18712         0.076729      0.367479     -0.030035
O	      2.16419      4.10154      4.05041        -0.044184      0.129626     -0.165208
O	      4.50120      6.15955      4.11833        -0.069869     -0.004744     -0.004984
O	      4.33654      4.04450      6.17381        -0.295553     -0.205750      0.040544
O	      6.73513      6.25820      6.14162         0.927672      0.130314      0.196227
O	      6.81763      4.11105      8.25423         0.232835     -0.040482      0.059680
O	      8.85664      6.08318      8.16275         0.031820      0.090376     -0.500924
O	      2.24836      6.08918      6.15595        -0.032891      0.199297      0.024292
O	      4.66636      8.13941      6.26543        -0.030840      0.062804      0.299277
O	      4.42434      6.19830      8.35943        -0.023495      0.165684      0.086933
O	      6.46881      8.20841      8.29674        -0.166238      0.007563      0.063664
O	      6.36879      6.25687     10.29133        -0.066868      0.112378     -0.035841
O	      8.84602      8.27548     10.36096        -0.049762     -0.010027     -0.043765
