# total energy = -223.52362010 eV
 
CRYSTAL
PRIMVEC
0.019691 6.282132 6.203026 
6.346469 0.010402 6.212203 
4.225954 4.189033 0.011987 
PRIMCOORD
36 1
Li	      2.13342      2.10286      0.03149        -0.056969     -0.015132     -0.055701
Li	      2.03280      0.09115      2.05806        -0.032660      0.052033      0.043411
Li	      6.28193      2.14061      4.19415         0.054421      0.017671      0.093326
Li	      8.44063      4.24744      8.21630        -0.064150      0.074821     -0.001198
Li	      4.25248      4.18200      4.19009         0.007316      0.122297     -0.026683
Li	      4.25891      2.11619      6.18100         0.096075      0.013156      0.125388
Li	      6.37112      4.13081      6.21046        -0.034572     -0.073989      0.072625
Li	      0.03156      4.18809      4.12988         0.009472     -0.100194     -0.128587
Li	      4.18917      6.30299      6.21282         0.023011     -0.030740     -0.043989
Sc	      4.25170      4.15469      8.17770         0.458273     -0.302506      0.027087
Ti	      8.41807      4.11254      4.22728        -0.171710     -0.518553      0.401146
Ti	      2.10228      2.15663      4.16273        -0.700304      0.208497      0.224009
Fe	      4.27638      4.20654      0.07860        -0.265984      0.515083     -0.049406
Co	      0.07518      2.10656      2.02009         0.161244     -0.224000      0.179911
Co	      2.15026      6.24655      4.15924         0.203776      0.192799      0.000688
Co	      6.35821      6.23857      8.25843         0.016735     -0.117284     -0.015695
Cu	      4.22570      2.14538      2.07664        -0.192645     -0.025945      0.021277
Cu	      6.35356      8.37044      6.22534         0.191031      0.014152     -0.141705
O	      2.09438      2.14004      2.21192        -0.163898     -0.078625     -0.184943
O	      4.24063      4.28406      2.03247         0.095570      0.361803      0.168591
O	      4.12301      2.01117      4.06632        -0.036095      0.102637     -0.202393
O	      6.48343      4.29650      4.16583         0.261757      0.036951     -0.038476
O	      6.36986      2.06422      6.35318         0.080119     -0.240033      0.020619
O	      8.59524      4.20302      6.09639         0.008415      0.009165     -0.395965
O	      2.12377      4.10076      4.22681         0.028178     -0.448074     -0.060140
O	      4.34471      6.29250      4.01999         0.041385     -0.006193     -0.100092
O	      4.13712      4.18760      6.17503         0.047909      0.029161      0.080213
O	      6.32981      6.32734      6.21877         0.027402     -0.186469     -0.090196
O	      6.33313      4.24222      8.23243        -0.102718     -0.047495     -0.035466
O	      8.35197      6.26181      8.35088         0.056519     -0.048715     -0.018939
O	      2.08466      6.22115      6.17732         0.088495     -0.003254     -0.284385
O	      4.31739      8.46242      6.31292        -0.212085     -0.082926      0.233858
O	      4.39512      6.23997      8.35242         0.069797      0.155354     -0.004073
O	      6.34254      8.18147      8.23314        -0.164692      0.015055      0.139201
O	      6.26878      6.29405     10.24985         0.209492      0.009804      0.091362
O	      8.42821      8.46711     10.35245        -0.037908      0.619686     -0.044676
