# total energy = -223.91894313 eV
 
CRYSTAL
PRIMVEC
-0.005387 6.249661 6.277720 
6.194515 -0.012761 6.285340 
4.135915 4.177531 -0.014863 
PRIMCOORD
36 1
Li	      2.05613      8.27346      6.25528        -0.063029      0.003589     -0.012602
Li	      6.23641      4.14407      2.15886        -0.029158     -0.028378      0.011034
Li	      4.20155      8.26288      8.37123         0.130733     -0.019956     -0.010610
Li	      4.12984      6.24146     10.26432         0.063952     -0.050399     -0.019375
Li	      2.06764      4.21267      2.14073         0.009415     -0.045762     -0.012123
Li	      4.14220      4.20190      4.19672         0.011675      0.175523     -0.012117
Li	      8.23693      6.31631      6.32208         0.086676      0.022718      0.024059
Li	      8.20486      8.32813      8.39836        -0.031914      0.031030      0.007070
Li	      6.19741      6.34077      8.43913        -0.103084      0.088714      0.020509
Sc	      6.20424      4.15202      6.28657        -0.041522     -0.345570      0.219561
Ti	     10.20941      4.11301      6.29143        -0.269575      0.227759      0.438846
Ti	      2.29059      2.11399      4.06530        -0.048161      0.202058     -0.031573
Fe	      4.06916      6.24057      6.46241        -0.033962     -0.008664     -0.432277
Co	      6.21401      8.35648     10.34627         0.235593     -0.315493      0.286079
Co	     10.23443      6.25604      8.44612         0.190503     -0.298467     -0.440617
Co	      2.04137      6.21901      4.17066         0.339133     -0.042028      0.004400
Ni	      6.14322      4.14867     10.41348        -0.058708     -0.221720     -0.109344
Ni	      6.23942      8.32047      6.34268         0.083718      0.069305      0.058189
O	      2.03507      2.12216      2.23568        -0.591220     -0.014457      0.136928
O	      4.17295      4.36121      1.88377        -0.087094      0.143163     -0.103911
O	      4.12422      2.15611      4.15603        -0.121554     -0.031354     -0.183578
O	      6.22544      4.32968      4.20031         0.080310     -0.466395     -0.093817
O	      6.17783      2.01491      6.11487         0.004304     -0.022818     -0.444370
O	      8.35670      4.13867      6.20983         0.202335      0.011135      0.026828
O	      2.03296      4.13404      4.25199         0.068261     -0.116486     -0.127948
O	      4.01439      6.27739      4.17633         0.012299      0.087350      0.650273
O	      4.14055      4.22815      6.28959         0.122635     -0.050147      0.010374
O	      6.13704      6.26146      6.16591         0.138839     -0.154861     -0.083012
O	      6.21609      3.98024      8.35217        -0.131354     -0.088849      0.125734
O	      8.28944      6.18847      8.53633         0.781970      0.064565     -0.029689
O	      2.04199      6.20985      6.15546        -0.081941      0.092126     -0.192116
O	      4.14972      8.40452      6.24060        -0.171065      0.176111      0.150766
O	      4.14196      6.26377      8.29739         0.032165      0.062418      0.213433
O	      6.18889      8.36181      8.48995        -0.077360     -0.069611      0.223673
O	      6.30595      6.18980     10.54059        -0.093375      0.809076     -0.268173
O	      8.17926      8.11156     10.45454        -0.560443      0.124777     -0.000504
