# total energy = -225.21189489 eV
 
CRYSTAL
PRIMVEC
0.020578 6.211352 6.204846 
6.497416 0.013486 6.211354 
4.331810 4.145451 0.008655 
PRIMCOORD
36 1
Li	      8.65712      2.13267      6.23008        -0.044358      0.011640      0.046938
Li	      4.30176      2.09440      2.10095        -0.033670      0.039577      0.021291
Li	      6.46203      2.06031      8.21512        -0.024882      0.180330     -0.042474
Li	      2.18294      4.10826      2.06284        -0.197056     -0.033734      0.047445
Li	      2.22820      2.13304      4.11552        -0.109147     -0.036322      0.012342
Li	      8.63417      6.21003      6.34171         0.006523     -0.013194      0.089521
Li	      6.56220      8.26781      6.26250         0.023552     -0.009276      0.048868
Li	      8.59620      8.22225      8.24456         0.169102     -0.007775     -0.090200
Li	      6.68218      6.31856      8.23022         0.059673     -0.164238     -0.121390
Sc	      8.70281      6.22547     10.22729         0.134995     -0.170945     -0.200525
Ti	      2.10307      0.10162      2.00374         0.041145      0.566696     -0.226254
Ti	      4.49529      6.31866      6.28614         0.708657     -0.333229      0.104916
Fe	      6.50139      8.29279     10.29530        -0.021397      0.056810      0.138520
Co	      4.25198      4.01721      4.19882        -0.138383      0.104981     -0.022262
Co	     10.65607      4.20173      6.26516        -0.004472      0.042024      0.068633
Co	      6.54034      4.15693      6.37854        -0.106025     -0.122838     -1.049577
Co	      6.52865      4.15952     10.22844         0.116516     -0.042229     -0.503240
Cu	      4.33082      6.22741     10.30587        -0.036258      0.091848     -0.016334
O	      2.15703      1.93431      2.10973         0.026262     -0.628000     -0.059841
O	      4.44500      4.12124      2.06914         0.073792      0.029611      0.174181
O	      4.39856      2.07780      4.15175         0.133994     -0.041341      0.205511
O	      6.36145      4.08300      4.19925        -0.202344     -0.003379     -0.119808
O	      6.51306      1.94697      6.15000        -0.048944     -0.189803      0.008340
O	      8.66665      4.13761      6.09182         0.164938      0.084817      0.012179
O	      2.26062      4.13190      4.14100         0.317049      0.003135      0.006720
O	      4.28786      6.19965      4.30172         0.094680      0.305393     -0.089390
O	      4.42561      4.27363      6.15003        -0.205787     -0.077114     -0.191111
O	      6.36516      6.19529      6.26219        -0.571832      0.361772      0.116873
O	      6.55087      4.10855      8.18738        -0.002252     -0.007673      1.425264
O	      8.67881      6.21833      8.28639         0.034991     -0.013302      0.218863
O	      2.26056      6.19714      6.29207         0.005207      0.080511      0.346609
O	      4.36548      8.28351      6.15479         0.015359      0.036066     -0.288117
O	      4.19982      6.24568      8.21900        -0.113464      0.053003     -0.081241
O	      6.50874      8.39982      8.37184         0.001303      0.094697     -0.033770
O	      6.59444      6.24501     10.40823        -0.111203     -0.267388      0.043742
O	      8.64786      8.35996     10.32176        -0.156262      0.018867     -0.001221
