# total energy = -227.03007296 eV
 
CRYSTAL
PRIMVEC
-0.035205 6.474886 6.087446 
6.340424 -0.029248 6.080953 
4.209438 4.294530 -0.001649 
PRIMCOORD
36 1
Li	      2.27328      6.38697      8.08731        -0.153388     -0.125703      0.015924
Li	      4.28661      8.37714      8.08696         0.173182      0.062204     -0.038837
Li	      4.18863      6.49665      9.96522        -0.010443     -0.013927      0.208427
Li	      8.46619      4.40054      8.05849        -0.069393     -0.055139     -0.032212
Li	      8.40153      6.38952      6.19355        -0.106334      0.058027     -0.082330
Li	      6.30549      8.62325      6.21458         0.034654      0.000780      0.033597
Li	      4.27083      6.33957      6.24418         0.109299     -0.111151     -0.160966
Li	      4.16018      4.46314      8.01604        -0.093163     -0.054585     -0.027987
Li	      6.16707      6.51934      7.96299         0.098678      0.104683      0.094154
Sc	      2.12347      2.17182      0.17015        -0.002082      0.070329      0.059935
Ti	      4.20007      4.14219      4.04212         0.092151     -0.252512      0.443863
Ti	      6.30915      4.28077     10.06698         0.016912      0.098375     -0.160084
Fe	      8.40944      6.42323     10.09260        -0.090894      0.004943      0.299776
Co	     10.45249      6.41505      8.12376         0.079351     -0.030578     -0.108806
Co	      6.33002      6.39189      4.10394         0.140413      0.216508     -0.415063
Co	      6.34349      4.38016      6.12849        -0.076118      0.196513     -0.055774
Co	      4.17959      4.28297      0.02671        -0.018037      0.045074      0.153222
Co	      6.28893      8.57315     10.02403        -0.046972      0.034092      0.892498
O	      4.20329      6.46457      8.08681         0.048945     -0.017219     -0.011254
O	      1.98440      2.17734      2.19234        -0.272508     -0.068754     -0.040822
O	      4.16369      4.40236      2.03023        -0.089426      0.287390     -0.010712
O	      4.19802      2.29088      3.99146        -0.085249     -0.137546     -0.027326
O	      6.16743      4.28526      4.06121         0.086531     -0.060666     -0.152732
O	      6.34204      1.96233      5.90461        -0.077136      0.065304      0.260517
O	      8.46849      4.20571      6.05240         0.220017     -0.066556     -0.035882
O	      2.09694      4.35096      4.07224        -0.024453      0.139452     -0.015603
O	      4.16074      6.59434      4.18458        -0.024614     -0.046315     -0.168208
O	      4.25140      4.30663      5.91985        -0.125007      0.062055     -0.337253
O	      6.35168      6.43955      5.92647         0.044583     -0.338301      0.247928
O	      6.35008      4.26271      8.17763        -0.027380     -0.099690      0.444334
O	      8.45512      6.44232      8.18485         0.379325     -0.064054     -0.057975
O	      1.87628      6.50789      6.05247         0.044715      0.084690     -0.141865
O	      4.17120      8.80354      6.03518        -0.104711      0.003488     -0.108529
O	      6.34428      8.55691      8.26983        -0.126505      0.111013     -0.841019
O	      6.36412      6.31308     10.24942         0.025527     -0.028927     -0.111666
O	      8.56817      8.49220     10.16943         0.029530     -0.073300     -0.011271
