# total energy = -223.01171105 eV
 
CRYSTAL
PRIMVEC
0.001239 6.169244 6.381413 
6.213681 -0.000820 6.383348 
4.152174 4.124093 -0.010129 
PRIMCOORD
36 1
Li	      8.26626      4.11343      4.23171         0.011544     -0.013574     -0.047121
Li	      6.27776      8.22733     10.56306        -0.022723     -0.003751     -0.144635
Li	     10.29445      6.23778      8.49378        -0.012568      0.075812      0.064504
Li	      8.27297      4.15740      8.46173        -0.083206     -0.018706      0.066178
Li	      8.21419      6.20503      6.50970        -0.040473      0.125408      0.017814
Li	      8.23418      6.22838     10.58812         0.012485      0.040068     -0.048728
Li	      6.25470      8.16521      6.43342         0.053309     -0.022715      0.102714
Li	      4.20810      6.13988      6.43998         0.022235     -0.066172     -0.012174
Li	      6.28182      6.18622      8.37061        -0.038154      0.080424     -0.079822
Sc	      4.12559      4.15061      4.31756        -0.009175     -0.140951      0.272012
Ti	      6.18485      0.12705      6.39548         0.073073     -0.016428     -0.191821
Ti	      6.19779      4.13363     10.56228        -0.181425     -0.027264     -0.524884
Fe	      4.19844      8.10082      8.49668         0.578480     -0.006858      0.069030
Fe	      6.26392      6.12682      4.27080         0.108006      0.058594      0.016755
Co	      8.27615      8.21755      8.49262        -0.338226     -0.630540     -0.378478
Cu	      2.06394      2.07139      0.01731         0.169782     -0.068557     -0.177891
Cu	      6.27031      4.11211      6.39158        -0.256812      0.107700      0.029468
Ni	      2.07700      6.14749      8.47194         0.100105     -0.387978      0.106157
O	      2.19188      2.03025      2.24197        -0.293842      0.084435     -0.491367
O	      4.13906      4.04996      2.06734        -0.184177      0.211237     -0.270470
O	      4.13496      2.07376      4.10915        -0.075434      0.082908      0.321569
O	      6.17278      4.14504      4.13616         0.036666     -0.007844      0.041059
O	      6.26248      2.04367      6.39845        -0.079323     -0.256227      0.067666
O	      8.34608      4.06699      6.41423         0.142485      0.090270      0.074443
O	      1.99030      4.07641      4.27808         0.037060      0.025892      0.007427
O	      4.19685      6.25305      4.26041        -0.121609      0.083939     -0.041626
O	      4.21323      4.10941      6.43781         0.088343      0.048027     -0.592206
O	      6.25482      6.06661      6.21847         0.135296      0.039378      0.317593
O	      6.14174      4.15427      8.68197         0.769737      0.141127      0.613171
O	      8.27216      6.40575      8.50895         0.114372     -0.185740     -0.022431
O	      1.93289      6.25028      6.41249        -0.161728      0.028792     -0.069908
O	      4.09552      8.29191      6.39443        -0.125251      0.127041     -0.181700
O	      4.13924      6.09094      8.47000         0.131936      0.201997     -0.023240
O	      6.22714      8.19861      8.46478        -0.781984      0.161960     -0.118001
O	      6.21634      6.05762     10.84092        -0.013880     -0.041419      0.318163
O	      8.37346      8.23717     10.49093         0.235075      0.079713      0.910780
