# total energy = -221.90286105 eV
 
CRYSTAL
PRIMVEC
0.034017 6.278736 6.211032 
6.516438 0.002611 6.241773 
4.354865 4.216853 -0.008220 
PRIMCOORD
36 1
Li	      6.59403     10.31114      8.39871         0.120750      0.027157      0.109250
Li	      4.55434      8.34920      8.38560         0.033350     -0.098325      0.032294
Li	      6.44430      8.39246     10.20554        -0.143337      0.002893      0.025329
Li	      2.23111      2.10251      4.09058         0.127940     -0.139119      0.055313
Li	      4.33258      4.13715      4.16101         0.041218     -0.026874      0.023341
Li	      4.29466      2.13708      6.16228        -0.099488     -0.010766     -0.073129
Li	      6.63179      8.35436      6.28492         0.046775     -0.067918     -0.039175
Li	      4.44831      6.24974      6.24156         0.084826      0.039804      0.082738
Li	      8.53286      8.40860      8.31911        -0.052374      0.090024     -0.016833
Sc	      2.22055      8.36342      6.22847         0.019156      0.051609      0.030333
Ti	      4.44512     10.45910      6.22508         0.033751     -0.083936     -0.090070
Ti	      6.31436      4.28882      6.15218        -0.064277      0.422421     -0.582466
Fe	      2.23230      4.23548      2.13414         0.051097     -0.146915     -0.195013
Fe	      0.03333      4.12049      4.07321         0.047095      0.342447      0.192153
Co	      4.28555      0.14298      4.09812         0.136661     -0.236423     -0.314102
Cu	      4.38005      6.29125      2.13283         0.123024     -0.039941     -0.101231
Cu	      8.75139      6.30551     10.33892        -0.056351      0.071234      0.205538
Cu	      6.48347      6.42198      8.25465         0.194140     -0.077496      0.116286
O	      6.57608      8.31223      8.25873        -0.052802     -0.175127     -0.029422
O	      2.05469      2.22237      2.05895        -0.074817      0.066672      0.024430
O	      4.23740      4.09132      1.91090         0.045446      0.039354     -0.026284
O	      4.31040      1.95664      4.15712        -0.017460     -0.006429      0.123510
O	      6.59655      4.13763      4.30586        -0.351577      0.121762      0.290638
O	      6.57613      2.08447      6.31977        -0.044030     -0.032842      0.057559
O	      8.76372      4.21181      6.21411         0.048407     -0.162544      0.158131
O	      2.11904      4.30628      4.09565        -0.041663     -0.185148      0.127083
O	      4.46626      6.41428      4.08473        -0.176057     -0.054713     -0.098651
O	      4.52478      4.20199      6.20154         0.071546     -0.059466      0.033964
O	      6.52095      6.17950      6.28093         0.067656     -0.318047     -0.498948
O	      6.69506      4.40181      8.25244        -0.190025      0.172477      0.059910
O	      8.83852      6.25022      8.36532         0.183044      0.168423     -0.011012
O	      2.00385      6.29984      6.17294        -0.083749     -0.023998     -0.029248
O	      4.32123      8.50893      6.11212        -0.013020      0.079196      0.040353
O	      4.43124      6.34230      8.42222        -0.263387     -0.197461      0.102296
O	      6.41089      6.23465     10.47587         0.204721      0.143172      0.190797
O	      8.85146      8.40071     10.36083         0.043810      0.304845      0.024338
