# total energy = -222.76896856 eV
 
CRYSTAL
PRIMVEC
0.009824 6.204028 6.189540 
6.380883 -0.044459 6.244000 
4.243220 4.161895 -0.018933 
PRIMCOORD
36 1
Li	      6.25572     -0.00579      6.13599        -0.002949      0.020808      0.052896
Li	      8.38148      2.17980      6.13366        -0.024321     -0.043106      0.025640
Li	      4.19158      2.09187      1.99141        -0.022858      0.021021      0.080336
Li	      6.44369      1.98310      4.41734         0.019969      0.025962     -0.119127
Li	      8.56594      4.09358      8.11129         0.011984     -0.025192      0.018628
Li	      4.26161      4.14000      4.20822         0.010485     -0.063106     -0.036215
Li	      4.40801      1.96360      6.17774         0.018528      0.010809     -0.003559
Li	      6.52262      3.95396      6.17404        -0.017041      0.037043     -0.016150
Li	      8.45369      6.20125     10.41603        -0.015372     -0.048208     -0.018773
Sc	      6.47364      6.15055      8.34223         0.074799      0.083942      0.067415
Ti	      6.20437      4.10309      2.09301        -0.342999     -0.242010      0.421941
Ti	      2.25335      2.13047      4.15275         0.285734      0.311888     -0.290700
Fe	      6.27818      2.05875      8.19195         0.101515     -0.063340      0.211477
Fe	      4.20223      6.19882      6.14472         0.107575      0.018045      0.089356
Co	      2.13354      4.12321      6.20897        -0.049771      0.065651     -0.102412
Ni	      8.52103      4.12850      4.19127        -0.068052      0.123085     -0.069849
Ni	     10.60691      8.28304     10.40291         0.081935      0.012391     -0.069418
Ni	      8.51324      8.26510      8.28466        -0.042476     -0.034833     -0.004586
O	      8.48484      4.11924      6.08033         0.016836     -0.002665      0.143730
O	      2.06928      1.97128      2.17827        -0.006397     -0.105144     -0.019443
O	      4.36063      4.18209      2.06891         0.287131     -0.058062     -0.006584
O	      4.10541      1.99425      4.15033        -0.298537      0.054386      0.010320
O	      6.37983      4.20763      4.02523        -0.119579      0.075720     -0.128945
O	      6.37915      2.03118      6.33995         0.053916     -0.011050     -0.223152
O	      2.12944      4.03700      4.25432         0.086488     -0.432777     -1.069920
O	      4.35140      6.22409      4.14746        -0.012336     -0.029117     -0.085550
O	      4.09060      4.20558      6.24813         0.183269      0.019303     -0.058977
O	      6.29823      6.29224      6.15340        -0.031290      0.002489      0.041259
O	      6.37774      4.07879      8.31142         0.060689      0.064637     -0.074640
O	      8.52891      6.19205      8.31988        -0.061405     -0.088607     -0.010496
O	      2.20800      6.08619      6.29635        -0.064242      0.031760     -0.053486
O	      4.41789      8.18978      6.18568        -0.210099      0.020862      0.132081
O	      4.23050      6.19221      8.29065        -0.010315      0.055465     -0.053453
O	      6.38729      8.33311      8.15748        -0.064194      0.240087      1.099488
O	      6.37704      6.19153     10.32911         0.108143      0.046121      0.014658
O	      8.55528      8.38881     10.32073        -0.044766     -0.094255      0.106210
