# total energy = -224.08151971 eV
 
CRYSTAL
PRIMVEC
0.006788 6.293825 6.265105 
6.356653 0.049872 6.222916 
4.264675 4.195504 0.005564 
PRIMCOORD
36 1
Li	      0.07357      6.19188      6.12632        -0.039666      0.033053      0.037267
Li	      4.36469      8.30528      8.29812         0.008486     -0.087133     -0.005707
Li	      4.42336      6.40866     10.35391        -0.066924      0.120099     -0.018978
Li	      6.36702      8.26820     10.40758        -0.170576      0.036681      0.027458
Li	      6.39995      6.32107      4.21570         0.111510      0.031857      0.050793
Li	      8.33750      6.31404     10.50110        -0.004722     -0.038530      0.031386
Li	      6.16681      8.38863      6.32614         0.060401     -0.034271     -0.050759
Li	      4.22610      6.40750      6.28668         0.043283     -0.096143      0.076334
Li	      6.30545      6.40483      8.40419        -0.099005     -0.064513     -0.090080
Sc	      8.41154      8.49394      8.44649         0.370127      0.107910     -0.403704
Ti	      2.13428      4.13976      2.13048         0.097069      0.123216      0.214886
Ti	      4.30946      4.31566      4.15023        -0.186822     -0.197648      0.313805
Fe	      2.21053      8.25840      6.16290        -0.148765      0.330527     -0.051681
Fe	      6.44054      4.31957      6.15939        -0.210667      0.159500      0.069336
Co	      4.23012      2.12409      6.13390         0.098088      0.348553      0.881175
Co	      6.38164     10.48626      8.34229         0.234400      0.014676     -0.302890
Cu	      6.36985      2.13259      8.27033         0.010775     -0.005125      0.265153
Cu	      6.36777      4.35477     10.45459         0.003761     -0.251642     -0.172004
O	      6.36924      6.26820     10.37734         0.088412      0.060584      0.068480
O	      2.05325      2.13537      2.03797         0.071630     -0.055210     -0.165178
O	      4.21970      4.04300      2.19061        -0.739923     -0.162784      0.280070
O	      4.29421      2.21992      4.31353        -0.193926      0.118050     -0.007364
O	      6.25434      4.25508      4.11835        -0.189053      0.034141      0.173594
O	      6.39521      2.28853      6.31453        -0.024655     -0.169841     -0.231709
O	      8.45571      4.22721      6.34818         0.101112     -0.441538     -0.059539
O	      2.31373      4.17854      4.02811         0.017526      0.153080     -0.241960
O	      4.25754      6.21870      4.09626        -0.023761      0.032772     -0.037234
O	      4.37684      4.21865      6.18138         0.099094      0.141500     -0.177626
O	      6.47990      6.25778      6.26527         0.232039      0.014831     -0.174911
O	      6.50993      4.36749      8.32809         0.084810      0.110212      0.004825
O	      8.62357      6.23635      8.17880        -0.203333     -0.067367     -0.452847
O	      2.08249      6.34463      6.43080        -0.301271     -0.094998     -0.328756
O	      4.15086      8.37902      6.17800         0.002853     -0.033909      0.100994
O	      4.03680      6.30773      8.36924         1.202455      0.000342      0.124638
O	      6.41343      8.55837      8.31259        -0.338051     -0.142699      0.026199
O	      8.38720      8.34962     10.43768         0.003288     -0.028232      0.226536
