# total energy = -90.70849694 eV
 
CRYSTAL
PRIMVEC
-1.978971 4.057497 -1.978284 
1.947939 4.025375 1.946307 
1.965024 0.016645 -5.888565 
PRIMCOORD
16 1
Li	      0.02682      3.89334     -3.82631        -0.286519     -0.071459     -0.729286
Li	      1.83052      3.89092     -5.62619         0.335215     -0.081046     -0.426167
Li	      0.03723      1.95506     -1.93804        -0.125203     -0.466883      0.100350
Li	      1.84088      1.95065     -3.73791         0.228474     -0.425435     -0.214331
Mn	     -1.89794      3.89541     -1.90059        -3.264161     -0.286642      0.385076
Mn	     -0.02076      5.82815     -1.90984        -1.986346      3.444721      0.825965
Ni	      1.87536      5.82708     -3.80510         1.686892      1.743232     -2.017967
Ni	      1.86249      3.88190     -1.89066         1.508834     -1.483484      1.206455
O	     -0.01469      3.85619     -5.78399        -0.136905      0.189815     -1.539921
O	      1.74975      5.77521     -1.91288         2.702632      1.718720      1.540130
O	      1.98796      3.93374     -3.78289         0.996729     -1.601407     -1.021147
O	      1.85639      3.71754      0.04796         0.626533      0.028824      1.670926
O	     -0.01736      5.88356     -3.67949        -1.335186      0.179959     -2.930300
O	     -0.00520      5.97508     -0.09081        -0.150298      0.686883      2.264642
O	     -0.07775      4.04236     -1.88790        -0.113006     -2.576300      0.065345
O	      0.05905      1.78592     -0.02351        -0.687686     -0.999496      0.820228
