# total energy = -226.11614647 eV
 
CRYSTAL
PRIMVEC
0.060190 6.289993 6.280380 
6.192406 0.059961 6.280389 
4.141063 4.206079 0.027276 
PRIMCOORD
36 1
Li	      6.25457      6.35682     12.54887         0.013815     -0.035894      0.046972
Li	      6.15618      4.22711      2.18006         0.030426     -0.054559      0.030228
Li	      6.18898      2.14824      4.22014         0.043210      0.035036      0.000555
Li	      6.08511      6.22070      4.26931        -0.002500     -0.002456      0.008587
Li	      4.28808      4.31752      4.21445         0.030908     -0.017612     -0.031657
Li	      6.11314      4.23124      6.28826        -0.032022     -0.017135      0.009411
Li	      4.13223      8.33032      4.20272        -0.007394      0.000528     -0.027560
Li	      4.21590      6.30328      6.16027         0.009945      0.001569     -0.069560
Li	      4.23168      4.24429      8.33923        -0.040093      0.062905     -0.074530
Sc	      8.22958      4.29466      8.43751         0.019750      0.018053      0.057333
Ti	      8.20184      4.23938      4.22957        -0.360984     -0.047735     -0.070107
Ti	      2.14445      4.23534      6.18247         0.106636     -0.032033     -0.095137
Fe	      2.05615      8.24917      6.28900         0.118832      0.001926      0.000228
Fe	      4.18633      2.18916      2.13896        -0.021772     -0.100538      0.121417
Co	      4.17010      2.15425      6.24711        -0.001200      0.049015     -0.062892
Co	      6.23911      6.35311      8.37859        -0.031107      0.008306     -0.009891
Ni	      4.16418      6.29905      2.18155        -0.022912      0.002980     -0.038826
Ni	      8.30660      6.41081     10.48568        -0.072808      0.036552     -0.057515
O	      2.11216      2.13531      1.98350         0.101582     -0.056090      0.101811
O	      4.12802      4.13636      2.16669         0.012272      0.023601     -0.021069
O	      4.15522      2.02668      4.27287         0.031085     -0.020479     -0.037793
O	      6.36663      4.23312      4.17087         0.341262     -0.006044      0.075223
O	      6.18599      2.14107      6.38579        -0.059175     -0.008275     -0.121756
O	      8.32673      4.33903      6.24766         0.002317     -0.010160     -0.008003
O	      2.04828      4.23119      4.27702        -0.020494     -0.092786      0.148645
O	      4.10168      6.31269      4.14106         0.138323      0.017124      0.177089
O	      4.06148      4.08593      6.25398        -0.104298     -0.014266     -0.043632
O	      6.35315      6.42470      6.38085        -0.034709      0.061022      0.039861
O	      6.21327      4.37143      8.34741        -0.018180      0.075252     -0.008314
O	      8.22107      6.38197      8.26421        -0.112529      0.022626     -0.023450
O	      2.13596      6.22818      6.28632        -0.029455     -0.104341      0.106577
O	      4.23201      8.36540      6.39777        -0.039066      0.032327     -0.057046
O	      4.31536      6.39756      8.51071        -0.012332     -0.019604      0.060128
O	      6.21211      8.31979      8.29044         0.119147      0.004955     -0.050167
O	      6.24720      6.36166     10.30253        -0.124292      0.012471     -0.002029
O	      8.31565      8.52514     10.64463         0.027815      0.173758     -0.073130
