# total energy = -227.56071943 eV
 
CRYSTAL
PRIMVEC
0.011872 6.278210 6.321877 
6.268393 -0.049488 6.382087 
4.147474 4.193045 -0.000273 
PRIMCOORD
36 1
Li	      2.11813      1.97012      0.21504        -0.102513      0.063343     -0.048542
Li	      2.03080      0.16255      2.05348        -0.035243     -0.012605     -0.054182
Li	      0.20501      2.11342      2.21937        -0.085144     -0.002368     -0.027671
Li	      2.04303      4.00814      2.23405        -0.017239      0.060676     -0.077800
Li	      1.96242      2.19658      4.05560         0.012057     -0.041532      0.097475
Li	      4.27091      8.18182      4.20343        -0.032999     -0.011702     -0.029417
Li	      2.14000      6.23226      4.27150        -0.043758     -0.006881     -0.004880
Li	      4.09764      6.34573      6.21474         0.023749     -0.088336     -0.004354
Li	      6.30811      6.21873      8.50260         0.084097     -0.051331     -0.085890
Sc	      6.14292      8.37161      6.33938         0.200258     -0.023384     -0.038040
Ti	      4.21478      6.24308     10.47039        -0.260857     -0.119173      0.096771
Ti	      8.43036      8.24982      8.49049         0.372657     -0.318222     -0.114514
Fe	      4.11612      4.35189      4.02875         0.118761     -0.040876      0.377144
Fe	      8.31789      6.21282      6.41604        -0.017015     -0.033922      0.017026
Co	      6.28962      4.18472      6.41469        -0.031923     -0.010802      0.059979
Co	      4.15432      4.20418      0.03096        -0.263609      0.022037     -0.162306
Co	      6.26104      8.33766     10.53915         0.074610      0.193752     -0.018174
Ni	      4.05129      2.11265      2.09649         0.107136     -0.129190      0.035288
O	      2.10393      2.07968      2.14284        -0.087331     -0.034659      0.019045
O	      4.14722      4.14927      2.12916        -0.044123      0.163978     -0.902497
O	      4.30332      2.02869      4.25528         0.082585      0.039046      0.003350
O	      6.29028      4.02082      4.32568         0.057819     -0.117597     -0.129933
O	      6.19169      2.05589      6.15059         0.155633     -0.700790      0.105868
O	      8.44132      4.22247      6.25249         0.167139     -0.053632     -0.183722
O	      2.19188      4.16811      4.30081        -0.084289     -0.028085     -0.038042
O	      4.16033      6.19579      4.26238         0.013167      0.103600     -0.003637
O	      4.16191      4.13829      6.47036        -0.050281      0.018272      0.017047
O	      6.36513      6.22057      6.36265        -0.090551      0.223526      0.044262
O	      6.16170      4.16842      8.48211        -0.314275      0.017556      0.129223
O	      8.36949      6.37738      8.39919         0.007260      0.270119      0.092936
O	      1.88480      6.25028      6.31620         0.050106     -0.001917      0.019638
O	      4.13832      8.42192      6.34735        -0.142992      0.659523     -0.065767
O	      4.18412      6.19749      8.59599         0.046506     -0.029020      0.231664
O	      6.32788      8.33230      8.54423        -0.025661      0.017431      0.092983
O	      6.14062      6.38259     10.60089         0.157380     -0.116609      0.588137
O	      8.23765      8.45085     10.46380        -0.001115      0.119775     -0.038468
