# total energy = -218.80687811 eV
 
CRYSTAL
PRIMVEC
0.007303 6.308685 6.170955 
6.351091 0.003326 6.174831 
4.244263 4.218435 -0.007810 
PRIMCOORD
36 1
Li	      4.24864      4.09645      0.12758        -0.056827      0.153912      0.270141
Li	      2.19963      2.10641      0.09871        -0.126577      0.073978      0.041764
Li	      4.27771      8.42924      8.18974         0.026403      0.318548      0.158877
Li	      4.22581      6.30638     10.19835        -0.078439      0.138846      0.276773
Li	      6.32313      8.47068     10.16715        -0.148631      0.078759      0.065858
Li	      4.37446      6.16156      2.04459         0.039985     -0.159629     -0.170357
Li	      2.24037      4.12596      2.04862         0.189885     -0.039606      0.009200
Li	      6.24121      8.49550      6.25310         0.082487     -0.025351     -0.022604
Li	      8.38325      8.54518      8.28263        -0.031807     -0.215367     -0.077752
Sc	      8.48969      6.34087      6.24234         0.208778     -0.080593     -0.382298
Ti	      6.45887      4.10823      6.27930         0.222356     -0.473360     -0.139015
Ti	      8.42383      6.41362     10.31385        -0.290743      0.022250     -0.339054
Fe	      2.17430      2.10958      3.97059         0.407323     -0.028830      0.032137
Fe	      4.25140      8.43782      4.14682         0.179867      0.115230     -1.021583
Cu	      6.27111      6.44064      8.22954         0.426670      0.022937      0.092398
Ni	      6.37841     10.47732      8.18536        -0.614010      0.034393      0.226631
Ni	      4.22423      6.34915      6.19907         0.006891     -0.135765      0.541116
Ni	      4.26076      4.19694      4.06505        -0.174940     -0.197876     -0.208390
O	      6.37280      8.43495      8.21464        -0.030430     -0.046415     -0.038342
O	      2.11701      2.01016      2.10364         0.025321      0.041532     -0.232482
O	      4.32972      4.18013      2.16852         0.110219      0.121779     -1.440878
O	      4.13542      2.19199      4.16148        -0.067070     -0.790308      0.300832
O	      6.32287      4.31151      4.18441         0.542822      0.044717      0.251967
O	      6.30656      2.24237      6.19172        -0.004983      0.359536      0.024871
O	      8.34926      4.26269      6.16311        -0.238963      0.005750      0.066207
O	      2.08571      4.18369      4.07010        -0.528033      0.234967      0.164233
O	      4.20304      6.31582      4.08957        -0.138034      0.643268      0.645906
O	      4.36763      4.24083      6.03301         0.131097      0.736148      1.223671
O	      6.35183      6.26105      6.16731        -0.497186      0.080702     -0.068089
O	      6.31453      4.29630      8.17362        -0.036395     -0.037758     -0.062588
O	      8.39248      6.31790      8.31575         0.030492      0.051964      0.253052
O	      2.13448      6.27714      6.05786         0.502034      0.066096     -0.165213
O	      4.24180      8.40125      6.03599        -0.031172     -0.900536      0.635419
O	      4.24247      6.33084      8.19913        -0.087007      0.000748     -1.190791
O	      6.46486      6.24978     10.24139         0.150012      0.012857      0.231760
O	      8.58432      8.27622     10.27169        -0.101395     -0.227523      0.046620
