# total energy = -220.18111003 eV
 
CRYSTAL
PRIMVEC
0.086806 6.383436 6.252115 
6.364685 0.070547 6.268544 
4.267682 4.291644 0.021939 
PRIMCOORD
36 1
Li	      6.46468      0.21976      6.24097        -0.014791      0.000947      0.030535
Li	      8.42546      8.47837     12.48709        -0.043681     -0.081852      0.018315
Li	      2.22698      6.40194      8.19499        -0.017647     -0.001059     -0.005088
Li	      6.60621      8.46494     10.57211         0.000088     -0.024286     -0.025683
Li	      6.33913      2.30493      8.21237        -0.028273      0.042796      0.069770
Li	      6.45618      4.17388      6.39581         0.026970     -0.026883     -0.002101
Li	      8.46828      6.63756     10.56698         0.012373      0.004355     -0.011204
Li	      4.15997      6.39827      6.33605        -0.025246     -0.020783     -0.021119
Li	      8.61867      8.53259      8.38314         0.002044     -0.058663      0.015439
Sc	      4.30743      4.31258      4.20426        -0.124337      0.041302     -0.045265
Ti	      4.34122      8.56474      8.16117        -0.007408      0.148461     -0.374227
Ti	      6.35898      6.39962      4.25109        -0.222844      0.097111     -0.012392
Fe	      8.63897     10.60516     10.51673         0.028527     -0.041821      0.193887
Fe	      6.46393      6.38316      8.35822         0.142917      0.052013      0.057852
Cu	      4.37183      2.16490      6.30308        -0.018543      0.033455      0.149400
Cu	      2.20179      4.37922      6.28764        -0.035653     -0.114115     -0.139100
Ni	     10.64518      8.62499     10.45942         0.028769     -0.079791      0.075186
Ni	      8.50871      4.35408      8.27687         0.043137     -0.062171      0.099281
O	      2.21862      6.31240      6.24262        -0.058782      0.195571      0.002869
O	      2.27466      2.19736      2.20125         0.126554     -0.099516      0.118016
O	      4.23841      4.12021      2.14329         0.131659     -0.177723      0.034425
O	      4.17400      2.17642      4.16020        -0.029942     -0.034065     -0.186343
O	      6.41260      4.49408      4.20114         0.030123      0.068552      0.005741
O	      6.30330      2.22014      6.26517         0.215737      0.004253     -0.012638
O	      8.54021      4.47264      6.22687        -0.000963     -0.017802     -0.280107
O	      2.17005      4.17404      4.21243         0.105724     -0.033020     -0.150038
O	      4.45852      6.40667      4.17060         0.274206     -0.124739      0.026431
O	      4.18897      4.21625      6.28165         0.170088      0.142372     -0.025712
O	      6.48049      6.52391      6.22480        -0.074236     -0.011367     -0.178546
O	      6.46084      4.41095      8.38307        -0.109450     -0.018875     -0.110936
O	      8.48727      6.40848      8.29598        -0.168006      0.171571      0.038958
O	      4.37586      8.52237      6.30053        -0.082858     -0.007137      0.412664
O	      4.38374      6.58627      8.42833        -0.034019      0.032666      0.007999
O	      6.32150      8.50119      8.29301        -0.050348     -0.065464      0.218962
O	      6.38801      6.41949     10.34799        -0.048983      0.124358      0.045117
O	      8.59823      8.69043     10.47871        -0.142906     -0.058650     -0.040347
