# total energy = -218.73302261 eV
 
CRYSTAL
PRIMVEC
0.047005 6.300959 6.373773 
6.350765 0.040626 6.379573 
4.247664 4.218133 0.013563 
PRIMCOORD
36 1
Li	     10.45508      4.30209      6.42886        -0.058089      0.023049     -0.057271
Li	      4.20948      2.16263      2.28740        -0.057952      0.059939      0.182252
Li	      8.40935      4.38168      4.38536        -0.029648      0.033961      0.052751
Li	      6.22601      2.13414      4.36699        -0.078342      0.010519      0.061086
Li	      8.55401      4.19291      8.37207         0.024835     -0.019999     -0.055424
Li	      2.29309      2.07093      4.34637        -0.004124      0.048012     -0.038312
Li	      4.25501      4.12237      4.30885         0.002278     -0.066471     -0.009123
Li	      4.20256      2.04382      6.18899         0.083956     -0.107550     -0.035911
Li	      6.49446      4.26487      6.23023         0.039352     -0.061720     -0.093707
Sc	      0.06684      4.20545      4.27308         0.080528      0.044865     -0.185079
Ti	      6.37906      2.01806      8.35616         0.113927     -0.262140      0.073022
Ti	      4.26139      4.27570      8.36524         0.175551      0.000372      0.272874
Fe	      6.34844      4.22464      2.37846        -0.087959      0.061592      0.072321
Fe	      2.17280      6.27740      4.27636         0.075950     -0.015694     -0.168039
Cu	      8.47438      2.22463      6.39200        -0.183607      0.102522     -0.127115
Cu	      4.31456      6.33807      6.38737         0.046078      0.001822     -0.087492
Cu	      6.34633      6.39722      8.47561        -0.055669     -0.100696      0.258724
Ni	      6.37593      8.44974      6.40880        -0.008306      0.133088     -0.230901
O	      8.51264      4.16023      6.37459        -0.016083      0.062672      0.018249
O	      6.25508      6.42843      6.54114        -0.202674     -0.119440      0.000001
O	      2.02839      2.04019      2.03172        -0.022592      0.024573      0.056100
O	      4.32645      4.32015      2.08082         0.032791      0.182424     -0.092136
O	      4.22719      2.13036      4.26989        -0.007665      0.024610      0.045813
O	      6.30907      4.25823      4.21062         0.020198     -0.000455      0.195125
O	      6.44861      2.14734      6.47577        -0.116589     -0.033499      0.100706
O	      2.14251      4.32494      4.31709        -0.141122     -0.404399      0.003308
O	      4.20434      6.34886      4.03441         0.156058     -0.000674     -0.227279
O	      4.23576      4.29697      6.50353         0.034051      0.173637     -0.008656
O	      6.23997      4.17707      8.52159        -0.105221      0.056487     -0.083786
O	      8.63606      6.44773      8.51608         0.032759      0.116621     -0.137839
O	      2.29731      6.32255      6.31744         0.204211      0.055692      0.283634
O	      4.23231      8.35224      6.37585         0.107349     -0.255145      0.170392
O	      4.16736      6.15480      8.69085         0.063269     -0.058005     -0.034996
O	      6.50583      8.49460      8.47597         0.025126     -0.086822      0.055908
O	      6.55220      6.31631     10.45680        -0.238019      0.006198     -0.055541
O	      8.54389      8.29624     10.63346         0.095394      0.370052     -0.173658
