# total energy = -219.51012007 eV
 
CRYSTAL
PRIMVEC
-0.030458 6.086310 6.500381 
6.447433 -0.025861 6.494391 
4.269079 4.025617 0.012560 
PRIMCOORD
36 1
Li	      4.27934      2.03301      2.21278         0.007105      0.055342     -0.017882
Li	      4.17370      6.05938      2.31404        -0.039382     -0.024404      0.070531
Li	      6.28386      6.11164      4.39527        -0.133024      0.064913      0.020706
Li	      8.41983      6.06300      6.54501        -0.057870      0.031062      0.016470
Li	      6.43797      4.00289     10.76632         0.069152     -0.063637     -0.016893
Li	      2.22279      6.02886      4.19348         0.054379     -0.069803     -0.001210
Li	      2.19011      3.98823      6.38181         0.022769     -0.001453     -0.070655
Li	      4.33690      6.05245      6.32060         0.075132     -0.023761     -0.072734
Li	      8.54718      7.99965      8.77214         0.001187     -0.027145      0.073121
Sc	      6.28923      3.99630      6.55658        -0.187866      0.192801     -0.039542
Ti	      2.24304      8.09626      6.54152         0.275561     -0.046278      0.025665
Ti	      6.43145     10.00756      8.65836        -0.074241     -0.210183     -0.083243
Fe	      4.31801      6.14592     10.77909        -0.184117     -0.055635      0.162646
Fe	      6.47459      6.06740      8.58880        -0.043993      0.106094      0.000813
Cu	      0.01773      0.03454      0.02051        -0.010585     -0.089675      0.068658
Cu	      6.41589      8.07508     10.85309         0.022554      0.024161      0.045890
Cu	      2.08238      4.04386      2.26820        -0.066354     -0.004776      0.102675
Cu	      4.21365      4.02976      4.35689         0.033995      0.126374     -0.011127
O	      2.19255      4.01078      4.21691        -0.364496     -0.072408     -0.142103
O	      8.42240      5.96716      8.67282         0.033504      0.039653     -0.020491
O	      2.23298      2.02977      2.00914         0.017630     -0.198532     -0.134680
O	      4.53512      4.02656      2.45632         0.234516      0.014311     -0.147655
O	      4.41081      2.03632      4.36528         0.226905      0.201200      0.011007
O	      6.57444      4.01499      4.30173         0.160823      0.058095      0.004188
O	      6.60534      1.92844      6.62594        -0.028500      0.026632      0.001605
O	      8.57803      3.99062      6.49006        -0.130475     -0.066822     -0.109548
O	      4.24807      5.92566      4.34443         0.070634     -0.009989     -0.017811
O	      4.27381      4.01047      6.24780         0.072676      0.013260      0.268421
O	      6.35400      6.03228      6.61790         0.016544     -0.059992     -0.040393
O	      6.25973      4.08515      8.60463        -0.107408     -0.127766     -0.045075
O	      2.06177      6.13995      6.68607         0.118185      0.122924      0.098505
O	      4.11561      8.19186      6.42972        -0.175319     -0.011529      0.014104
O	      4.13165      6.08387      8.80558        -0.021380     -0.004021     -0.106147
O	      6.43941      8.12935      8.55346        -0.004524      0.254723      0.058922
O	      6.27771      6.12567     10.67310         0.153218     -0.060925     -0.066187
O	      8.46712      8.13534     11.02452        -0.036938     -0.102811      0.099449
