# total energy = -226.27467822 eV
 
CRYSTAL
PRIMVEC
0.032924 6.303622 6.137394 
6.562256 0.023031 6.145973 
4.374801 4.208001 0.015746 
PRIMCOORD
36 1
Li	      0.33213      6.22060      6.15309         0.019424     -0.000027      0.018909
Li	      2.29732      8.16789      6.17830         0.002887      0.030256      0.032634
Li	      2.29146      6.24111      8.01573         0.021409      0.024816     -0.013944
Li	      4.31310      4.22258      4.18310        -0.058048     -0.026928      0.022609
Li	      8.70854      6.38656      6.18905         0.007341      0.041644      0.004407
Li	      2.23554      6.25666      4.25201         0.040419     -0.027629     -0.015384
Li	      2.22387      4.40784      6.19984        -0.004294     -0.100620      0.043044
Li	      4.12849      6.31500      6.20282         0.006203     -0.009504     -0.009833
Li	      6.60305      6.37320      8.10994        -0.013017      0.039831     -0.042829
Sc	      6.55008      2.04460      8.08031         0.031162     -0.107384     -0.055743
Ti	      4.47503      6.33137     10.26024         0.140019      0.107974      0.091018
Ti	      6.50044      6.32660      4.21415        -0.097593      0.053853      0.216355
Fe	      6.62224      8.43310     10.24356        -0.025657      0.006128      0.111185
Fe	      8.77561      4.25079      8.09430        -0.055344     -0.021681      0.059618
Fe	      4.44491      8.42349      4.26320        -0.030791      0.021023     -0.075040
Co	      4.34143      4.22150      8.07072        -0.040915      0.006691     -0.193418
Cu	      4.42792      8.40924      8.06491         0.027734      0.011775     -0.038465
Ni	      6.53733      4.26688      6.16666        -0.046159      0.014203      0.081248
O	      2.21217      6.29961      6.12346         0.013533      0.003663     -0.033724
O	      2.07933      2.20010      2.11663        -0.124021     -0.065243      0.033801
O	      4.19663      4.16602      2.03983         0.009720      0.038854      0.004904
O	      4.35440      2.03761      3.97538         0.001134     -0.079114      0.069453
O	      6.67238      4.27960      4.09233         0.057730      0.033291     -0.096087
O	      6.52299      2.20076      6.03808        -0.014176     -0.095491      0.000476
O	      8.61152      4.26134      6.08563         0.085778     -0.029775     -0.207153
O	      2.11897      4.08957      4.05140        -0.019002     -0.091934      0.031619
O	      4.56927      6.34589      4.11259         0.120676     -0.035101     -0.004201
O	      4.47166      4.22763      6.26445        -0.068087      0.011507      0.136323
O	      6.67312      6.31288      6.03208        -0.044556      0.133399     -0.257310
O	      6.59420      4.20926      8.28441        -0.000501      0.006859      0.069323
O	      8.83661      6.26867      8.25740         0.018797      0.073837      0.014613
O	      4.39400      8.39691      6.12351        -0.007000     -0.006279      0.016454
O	      4.41038      6.32871      8.29968        -0.000036     -0.018594      0.074659
O	      6.73355      8.39820      8.33515         0.148148     -0.010502     -0.073923
O	      6.39680      6.33020     10.29089        -0.151321     -0.023257      0.023646
O	      8.77748      8.54759     10.16179         0.048405      0.089462     -0.039244
