# total energy = -226.96582167 eV
 
CRYSTAL
PRIMVEC
-0.066427 6.586619 6.195601 
6.184337 -0.053953 6.184343 
4.078740 4.339805 0.007784 
PRIMCOORD
36 1
Li	      8.08430     10.81817     10.32213         0.033339     -0.099400     -0.026309
Li	      6.25045      2.23095      4.14091         0.091785     -0.002371      0.020006
Li	      8.15984      4.43726      8.31435        -0.011346      0.015255      0.034259
Li	      6.08179      6.49989      4.23520         0.019519     -0.021392      0.022467
Li	      4.11239      4.31591      4.16360        -0.038949      0.018188      0.022996
Li	      8.09455      6.56954      6.19425        -0.001682      0.074282     -0.027373
Li	      8.17227      6.51498     10.23637        -0.007245      0.051341     -0.037285
Li	      8.19162      8.49716      8.26503        -0.060622     -0.051782     -0.018279
Li	      6.24641      6.44691      8.23267        -0.018026     -0.041145     -0.005531
Sc	      2.15328      4.31450      6.12713         0.040028      0.044701     -0.028312
Ti	      6.03222     -0.01065      6.04769        -0.103010      0.098563     -0.365493
Ti	      4.09795      2.13585      2.26384         0.061725     -0.090706      0.779179
Fe	      6.14657      4.34039      2.24140         0.039538      0.000309     -0.100615
Fe	     10.10739      6.50059      8.31313         0.287033     -0.003042     -0.097731
Fe	      6.13976      4.32254     10.17971        -0.136957      0.046485      0.108236
Co	      2.00673      8.70995      6.17052        -0.046584     -0.063698      0.039627
Cu	      6.11577      4.38548      6.14686         0.068152     -0.041843     -0.002799
Cu	      4.10298      6.50032      6.13994        -0.043155     -0.055803     -0.022881
O	      2.06813      2.07802      1.94824        -0.010997      0.045145      0.011263
O	      4.11443      4.27294      2.00553        -0.047355      0.001585      0.014603
O	      4.07084      2.15944      4.05349         0.018938      0.041744     -0.677159
O	      6.14077      4.34029      4.13645        -0.006732      0.001220      0.056985
O	      6.31479      1.89337      6.23075         0.127618     -0.155547      0.005916
O	      8.22226      4.11738      6.18826         0.066818     -0.245980     -0.008365
O	      1.90196      4.42536      4.14416         0.137631      0.019928      0.053840
O	      4.07179      6.66240      4.10047        -0.012125     -0.083260     -0.001899
O	      4.13511      4.29726      6.18261        -0.080525     -0.076107      0.000690
O	      6.04574      6.65192      6.23334         0.118606      0.086755      0.007576
O	      6.13577      4.20274      8.20534         0.006057      0.047873     -0.068349
O	      8.26337      6.45705      8.20625        -0.241540     -0.060178     -0.039327
O	      2.00110      6.67470      6.25422        -0.048076      0.199980      0.006758
O	      3.97846      8.94999      6.23246        -0.103052      0.131443      0.037203
O	      3.99547      6.79889      8.19433         0.049306      0.133747      0.060390
O	      5.98132      8.89300      8.26317        -0.063093      0.007868     -0.023269
O	      6.10375      6.43396     10.40470        -0.012047      0.031449      0.258768
O	      8.25154      8.68121     10.44537        -0.072973     -0.005606      0.010214
