# total energy = -91.36960880 eV
 
CRYSTAL
PRIMVEC
-1.989278 4.078630 -1.988588 
1.958085 4.046341 1.956444 
1.975259 0.016731 -5.919234 
PRIMCOORD
16 1
Li	      0.02710      3.93400     -3.86627        -0.234823     -0.050340     -0.624737
Li	      1.84964      3.93156     -5.68495         0.272059     -0.065180     -0.352670
Li	      0.03762      1.97548     -1.95828        -0.110233     -0.400215      0.096104
Li	      1.86011      1.97102     -3.77695         0.192846     -0.356016     -0.180297
Mn	     -1.91776      3.93610     -1.92044        -2.764880     -0.235841      0.351459
Mn	     -0.02098      5.88901     -1.92978        -1.643635      2.907099      0.678501
Ni	      1.89495      5.88794     -3.84485         1.391043      1.442261     -1.679255
Ni	      1.88194      3.92245     -1.91041         1.255352     -1.212441      1.019966
O	     -0.01485      3.89646     -5.84440        -0.067050      0.181971     -1.375654
O	      1.76802      5.83552     -1.93286         2.235149      1.456805      1.295638
O	      2.00872      3.97482     -3.82240         0.871551     -1.349601     -0.873351
O	      1.87577      3.75636      0.04847         0.537472      0.009199      1.452364
O	     -0.01754      5.94501     -3.71791        -1.119154      0.111228     -2.428912
O	     -0.00525      6.03748     -0.09177        -0.119664      0.592783      1.868990
O	     -0.07856      4.08458     -1.90761        -0.152869     -2.151465      0.049579
O	      0.05967      1.80457     -0.02376        -0.543164     -0.880246      0.702276
