# total energy = -227.37825363 eV
 
CRYSTAL
PRIMVEC
0.011185 6.202443 6.389444 
6.236763 0.021126 6.379069 
4.158047 4.128441 0.013508 
PRIMCOORD
36 1
Li	      6.27199      6.18770     12.65463         0.028753      0.099337     -0.073107
Li	      8.32618      8.30537     12.70927        -0.090050      0.009083     -0.024083
Li	      4.16537      2.08150      2.14334         0.006049     -0.016106      0.181337
Li	      8.37604      4.11183      4.36149         0.041875      0.028577      0.050810
Li	      6.21294      2.11738      8.38773         0.015617     -0.057471     -0.144604
Li	      8.32121      6.16253      6.41263         0.036396     -0.021624     -0.028678
Li	      6.27471      4.12256      6.31295         0.042286     -0.058657     -0.061961
Li	      2.06962      6.19629      4.37175        -0.035858      0.019352      0.022483
Li	      6.16409      8.27499      6.37194         0.065188      0.049956     -0.010263
Sc	      2.03814      0.07530      2.03750        -0.038577      0.036961      0.015278
Ti	      8.34265      4.15611      8.36697         0.194234     -0.014233     -0.642828
Ti	      4.09612      4.09948      4.40101        -0.014898      0.032837      0.140641
Fe	      6.30253      8.15256     10.81111        -0.011052     -0.053160     -0.234816
Fe	      4.18652      6.32707      6.37381        -0.116797     -0.456930      0.012703
Fe	      8.35046      8.18321      8.53454        -0.113431      0.019518     -0.079392
Co	      6.24180      4.18757     10.65722         0.033163      0.102306      0.007454
Ni	      6.26062      6.19248      4.34270         0.021978     -0.043366      0.016582
Ni	      6.22975      6.23273      8.49421         0.029966      0.074996      0.021228
O	      2.10247      2.16959      2.21161        -0.008135      0.117962     -0.077318
O	      4.06771      4.16445      2.28032        -0.082627     -0.016230      0.038617
O	      4.18300      2.19409      4.28391         0.063757      0.125408     -0.008226
O	      6.08063      4.12338      4.23201        -0.039659     -0.103780     -0.032884
O	      6.28675      2.05495      6.24793        -0.028338      0.069278      0.375457
O	      8.29118      4.14252      6.56196         0.072949     -0.016675      0.643563
O	      2.09371      4.14004      4.20891         0.524638      0.069803     -0.051784
O	      4.18929      6.21263      4.33121        -0.088897     -0.915388      0.054457
O	      4.14332      4.16856      6.31676        -0.018842      0.089007     -0.035439
O	      6.15144      6.19971      6.40732         0.010787      0.040638      0.085598
O	      6.27589      4.15599      8.67268         0.029739     -0.243257      0.123159
O	      8.31379      6.18716      8.47937         0.110306     -0.139399     -0.032723
O	      2.16156      6.20342      6.45137         0.018849     -0.011132      0.034553
O	      4.15578      8.27541      6.19769        -0.030839      0.070158     -0.223925
O	      4.15924      6.15711      8.43605        -0.106755      0.007408     -0.012282
O	      6.33356      8.28094      8.66380        -0.051561      0.164230     -0.158061
O	      6.23104      6.16357     10.58516         0.073692      0.992640      0.060702
O	      8.40934      8.28249     10.52840        -0.543906     -0.052046      0.047753
