# total energy = -228.82825457 eV
 
CRYSTAL
PRIMVEC
-0.007205 6.287819 6.408516 
6.209631 -0.001012 6.402017 
4.155217 4.202764 -0.016159 
PRIMCOORD
36 1
Li	      8.24896      2.20743      6.39932        -0.020849     -0.006519      0.004382
Li	      8.27520      4.22509      4.38913         0.007041      0.022876      0.063406
Li	      6.12857      2.18009      8.42319        -0.044268      0.042019     -0.024566
Li	      8.21183      4.21554      8.44106        -0.006391     -0.009155     -0.004261
Li	      8.31194      6.26502      6.44716        -0.042605      0.014787     -0.009227
Li	      6.28824      4.16025      6.51630         0.064549     -0.025566      0.046010
Li	      8.21909      6.29086     10.60509         0.014749     -0.048223     -0.051475
Li	      4.18801      6.24402      6.44627         0.035273      0.057493     -0.000055
Li	      4.20804      4.13893      8.35031         0.004605     -0.039115     -0.062837
Sc	      4.10033      4.24400      4.35145        -0.149346      0.025050      0.010265
Ti	      2.20547      6.32707      8.42955         0.271912      0.085477     -0.134997
Ti	     10.19336      8.33735     10.60232        -0.234027     -0.046323     -0.098608
Fe	     10.21046      4.22386      6.45559         0.107100      0.021165     -0.045715
Fe	      6.26911      8.32652     10.75848        -0.077222      0.041567     -0.081772
Fe	      6.28575      6.28702      4.38558         0.045469     -0.068311      0.018256
Co	      2.10362      4.15190      6.39344        -0.221147      0.283098     -0.165448
Co	      6.36100      6.23300      8.47314         0.080452      0.116303     -0.125010
Cu	      4.15004      8.38936      8.52908        -0.131937     -0.099541     -0.037499
O	      2.16173      1.94638      2.25714        -0.285669     -0.148482     -0.045636
O	      4.26025      4.16361      2.09312         0.128768      0.184671      0.070661
O	      4.13698      2.15599      4.35086         0.100523     -0.152081      0.098223
O	      6.20954      4.18582      4.14870         0.066405     -0.035626     -0.003458
O	      6.24737      2.01471      6.28085         0.044280      0.038888      0.128405
O	      8.34700      4.17720      6.44917        -0.141299     -0.046240      0.007359
O	      2.01937      4.09607      4.20905        -0.113524      0.182262     -0.063848
O	      4.19766      6.38923      4.22730        -0.054350      0.105276     -0.049231
O	      4.10880      4.24643      6.33693        -0.323215     -0.096219      0.198662
O	      6.19057      6.32446      6.37267         0.059124      0.314498      0.115468
O	      6.17378      4.25428      8.67885        -0.015113     -0.010376      0.102705
O	      8.13858      6.32633      8.51567        -0.126872     -0.036956      0.035503
O	      2.02460      6.25700      6.56839         0.064666     -0.314409      0.081441
O	      4.19525      8.51208      6.15592         0.456487     -0.229737     -0.091232
O	      4.12958      6.34845      8.49745        -0.179900     -0.150275      0.020068
O	      6.13711      8.44546      8.65207         0.320004      0.063694      0.103094
O	      6.19110      6.27096     10.64484         0.018240     -0.039279     -0.037529
O	      8.31578      8.34888     10.66125         0.278084      0.003308      0.028495
