# total energy = -230.12966662 eV
 
CRYSTAL
PRIMVEC
0.013150 6.391665 6.154632 
6.370240 0.004472 6.162962 
4.253413 4.273689 -0.003579 
PRIMCOORD
36 1
Li	      4.27993      8.53002      8.19721        -0.026060     -0.014336      0.017035
Li	      6.30287      2.16296      4.17635        -0.026644      0.007357      0.043024
Li	      6.34986      2.12378      8.12981        -0.008091      0.026512      0.009676
Li	      8.52874      4.29728      8.12734         0.006315      0.018185      0.052181
Li	      8.48483      6.31906      6.17048         0.016522     -0.064210     -0.010036
Li	      6.45282      4.31276      6.15996         0.039708     -0.023202      0.008823
Li	      6.33585      8.39094      6.20722        -0.048282      0.010038     -0.024594
Li	      4.38287      6.44446      6.19538        -0.036359      0.040258     -0.008422
Li	      6.36276      6.41918      8.09718         0.014204     -0.014276      0.006233
Sc	      2.13083      6.40294      4.11519         0.016475     -0.154595     -0.031216
Ti	      0.04368      4.24326      4.09820         0.183664     -0.026074     -0.097383
Ti	      4.22457      4.23419      8.00109         0.028306     -0.089182     -0.555404
Fe	      8.40150      2.22491      6.29945         0.043926      0.035745      0.001069
Fe	      6.39589     10.62882      8.19901        -0.026396      0.130867     -0.000402
Fe	      4.30730      4.13389      4.11020        -0.159910      0.038261      0.134230
Co	      6.39637      6.39126      4.17059        -0.058044      0.170968     -0.807085
Co	      4.28146      0.06883      4.12750         0.082835      0.050818      0.036947
Ni	      4.21219      4.31394      0.07582        -0.017448     -0.003276      0.048558
O	      2.15104      2.05772      2.13185         0.015576     -0.058852      0.365884
O	      4.32381      4.25448      2.15564         0.019701      0.008752     -0.029158
O	      4.20258      2.17722      4.10671        -0.251249     -0.153660      0.080299
O	      6.29306      4.31344      4.07294         0.216697      0.057338      0.088478
O	      6.49450      2.09095      6.15227        -0.045757      0.101807     -0.011921
O	      8.52570      4.19918      6.16518        -0.089635     -0.008328     -0.043597
O	      2.07689      4.29733      4.06914        -0.118890     -0.022180      0.056159
O	      4.24109      6.48026      4.10198         0.147585      0.092194      0.054007
O	      4.25498      4.28946      6.12872        -0.048298      0.021863      0.529120
O	      6.36914      6.41774      5.95631         0.053759     -0.069444      0.315352
O	      6.22851      4.30028      8.32252        -0.124917      0.035892      0.125364
O	      8.47164      6.59097      8.21713        -0.020359      0.149294      0.022399
O	      2.09146      6.50654      6.20826         0.097315     -0.003528     -0.046022
O	      4.17414      8.56505      6.04789         0.004264     -0.067769     -0.134455
O	      4.19831      6.25772      8.24959         0.029499     -0.067193     -0.022264
O	      6.54031      8.61118      8.20464         0.122246     -0.088316     -0.007737
O	      6.42939      6.24270     10.28727        -0.089526     -0.052049     -0.115994
O	      8.63512      8.50732     10.25981         0.057269     -0.015680     -0.049146
