# total energy = -225.07194364 eV
 
CRYSTAL
PRIMVEC
-0.007552 6.285744 6.235655 
6.302981 -0.006107 6.234070 
4.209405 4.196972 -0.011551 
PRIMCOORD
36 1
Li	      2.12308      0.06893      2.06541        -0.085756      0.039580     -0.013327
Li	      8.41501     10.45390     10.38177         0.055197     -0.028313      0.124576
Li	      8.39482      4.17046      8.29113         0.055470      0.019069     -0.054061
Li	      4.21200      4.19960      4.14849        -0.037174      0.072493     -0.045924
Li	      8.36730      6.24873      6.25149         0.072053     -0.138561      0.003749
Li	      6.30877      4.24188      6.22746         0.068233     -0.022357     -0.068610
Li	     10.44105      8.38275     10.37209         0.031145     -0.002854      0.034531
Li	      8.39563      6.32374     10.38731        -0.034925     -0.029843      0.062285
Li	      4.23351      6.29556      6.24541        -0.003083      0.006182     -0.082058
Sc	      6.31948      2.21033      4.14895         0.013861     -0.052452      0.350892
Ti	     10.42751      6.29712      8.38101        -0.121873     -0.337077      0.231168
Ti	      2.22429      4.21968      6.16213        -0.096580      0.254731     -0.838997
Fe	     10.44499      4.16356      6.19566         0.173701      0.086857     -0.219371
Fe	      6.35579      6.19717      4.14825        -0.173979      0.137591      0.163303
Fe	      6.27420      6.17171      8.33682         0.526347     -0.126651      0.191192
Cu	      4.14688      2.06827      2.08422         0.124903     -0.068742     -0.049369
Ni	      2.13194      8.35421      6.21363        -0.033949      0.114785     -0.059846
Ni	      4.22901      4.20373      8.33968         0.041918     -0.079072      0.040103
O	      1.97437      2.11111      2.10084         0.226683     -0.027121     -0.016274
O	      4.17244      4.36564      1.96443         0.063237      0.087447      0.433745
O	      4.14788      2.12409      4.02025         0.093185     -0.022347      0.078329
O	      6.29247      4.25043      4.17922         0.000113     -0.130325     -0.097995
O	      6.34052      2.03925      6.25583        -0.145554      0.198300      0.098888
O	      8.59323      4.12517      6.20204        -0.767877      0.047448      0.020973
O	      2.07840      4.07538      4.29911         0.064251      0.038528      0.511096
O	      4.27633      6.29135      4.02079        -0.060688      0.024942     -0.355054
O	      4.05236      4.24010      6.28205        -0.021060     -0.006042      0.022842
O	      6.33107      6.37816      6.24309        -0.013456      0.078567      0.062209
O	      6.29929      4.16531      8.26050        -0.099936     -0.131257      0.032542
O	      8.47405      6.32653      8.30934         0.040458      0.021007     -0.005199
O	      1.94504      6.19301      6.23752         0.488807     -0.329238      0.075641
O	      4.22240      8.42892      6.37103         0.193865     -0.300780     -0.024588
O	      4.34144      6.23082      8.29355        -0.465075      0.351668      0.007609
O	      6.34287      8.27170      8.27085        -0.200496      0.149203     -0.044572
O	      6.32240      6.30715     10.37449         0.023959      0.111805     -0.322841
O	      8.36281      8.38106     10.39647         0.004077     -0.007171     -0.247589
