# total energy = -224.78135847 eV
 
CRYSTAL
PRIMVEC
0.014249 6.207024 6.432311 
6.330912 0.016156 6.430160 
4.225679 4.141476 0.005744 
PRIMCOORD
36 1
Li	     10.46399      4.18768      6.40768        -0.036587     -0.009092     -0.105932
Li	      6.24285      4.16160      2.23184         0.023940      0.048112      0.086765
Li	      6.27701      2.13062      4.38653        -0.028141     -0.011885      0.022277
Li	      4.18544      6.13322      2.18230         0.036125      0.019745     -0.026563
Li	      2.27034      4.15009      2.17963        -0.025495      0.029769      0.009970
Li	      2.11178      2.06664      4.21227         0.039232     -0.035729     -0.005583
Li	      4.38236      2.01788      6.42328         0.015836     -0.060536     -0.011312
Li	      6.34859      4.09305      6.39027         0.044810      0.011828     -0.042389
Li	      2.19451      6.19901      4.26872        -0.027925      0.025870     -0.059826
Sc	      6.42046      6.15849      8.61390         0.109155     -0.089809      0.015956
Ti	      8.24736      2.10765      6.55252        -0.662343      0.273460      0.358426
Ti	      2.08530      4.18411      6.35233         0.022696     -0.125073     -0.063288
Fe	      8.33641      4.21618      4.33497         0.023331      0.071379      0.006720
Fe	      4.22735      6.24012      6.36477         0.095482     -0.047052      0.235360
Fe	      8.51022      8.21422      8.63628        -0.055204      0.042572     -0.028348
Cu	      4.33848      4.12856      4.25382         0.059578      0.009521      0.195742
Cu	      6.34334      4.12458     10.67494         0.041795      0.011614      0.021558
Ni	      4.20191      2.13805      2.20698        -0.023031     -0.044907      0.069866
O	      4.24838      4.11483      2.34985        -0.020439      0.166324     -0.103636
O	      2.14431      2.10253      1.95336        -0.121134     -0.022174     -0.292931
O	      4.25516      2.03133      4.25614        -0.052093      0.115004      0.091468
O	      6.41784      4.16820      4.30692        -0.292149     -0.019469     -0.024287
O	      6.43580      2.01299      6.41848         0.675908      0.036432      0.066613
O	      8.42960      4.03146      6.30557         0.047742     -0.301825      0.245045
O	      2.06264      4.17188      4.45048        -0.045674     -0.021973     -0.022563
O	      4.27551      6.26215      4.40853        -0.037473      0.053128     -0.250514
O	      4.11477      4.21548      6.37432        -0.129837     -0.004787     -0.022646
O	      6.24676      6.37737      6.47832         0.003258      0.189736     -0.018347
O	      6.20987      4.14372      8.43460         0.095755      0.018015      0.022665
O	      8.44415      6.28070      8.59251        -0.102563     -0.114613     -0.056511
O	      2.20139      6.24395      6.39119        -0.022661     -0.068110      0.040366
O	      4.31238      8.28519      6.57023         0.030405      0.029076     -0.051404
O	      4.23442      6.18512      8.56878         0.089544     -0.072366     -0.192009
O	      6.45013      8.29599      8.40852        -0.017173     -0.050739     -0.079626
O	      6.18553      6.11412     10.67334         0.168531      0.034614     -0.044618
O	      8.48887      8.32469     10.71964         0.076799     -0.086060      0.013537
