# total energy = -224.34897047 eV
 
CRYSTAL
PRIMVEC
0.008946 6.296692 6.278959 
6.359418 -0.022081 6.310200 
4.232251 4.211415 -0.007319 
PRIMCOORD
36 1
Li	      0.19826      6.25409      6.29436        -0.082279     -0.051086      0.011634
Li	      2.12542      8.24051      6.36273         0.018095      0.082815      0.033787
Li	      2.03609      6.20402      8.15050        -0.015663      0.037384      0.108191
Li	      4.35108      8.43238      8.18758        -0.007967     -0.033187      0.016286
Li	      6.35144      2.13964      4.18429        -0.030642      0.026817     -0.015600
Li	      0.03590      2.09051      2.06785         0.045411      0.015344      0.012440
Li	      4.21277      4.23188      4.20259         0.006886      0.013920      0.031071
Li	      2.04583      4.39574      6.39941         0.006616     -0.050774     -0.020017
Li	      4.04763      6.36031      6.31553         0.068054     -0.013531      0.024426
Sc	      6.28041      6.29501      4.19682        -0.003511     -0.061424     -0.002331
Ti	      4.30340      6.33319     10.39985        -0.028140      0.192126     -0.199118
Ti	      2.32206      4.15948      2.02042         0.427320     -0.284636      0.013097
Fe	      6.31817      4.11769      6.33669         0.031274      0.190133     -0.037424
Fe	      4.21052      8.38034      4.37147         0.039633     -0.001683     -0.447155
Fe	      8.35223      8.34015      8.35138         0.182643      0.093545     -0.019577
Ni	      4.28069      2.08295      6.30882         0.011243      0.019918     -0.029203
Ni	      2.15578      6.31080      4.28619        -0.050966      0.002915     -0.148590
Ni	      6.33992      6.31071      8.36794        -0.068583      0.008317     -0.036813
O	      2.10597      6.31976      6.23752        -0.040234      0.027155      0.142456
O	      2.13433      2.28018      2.13184         0.033578      0.300077     -0.003059
O	      4.12520      4.24365      2.08629        -0.431814     -0.024271     -0.056230
O	      4.21606      1.94111      4.22900        -0.007016     -0.274269     -0.065657
O	      6.50125      4.20792      4.30134         0.127923      0.041585     -0.078957
O	      6.33073      2.29085      6.31540         0.057190     -0.392721     -0.023478
O	      8.42496      4.21767      6.34179         0.049480     -0.100204      0.066666
O	      2.06106      4.20746      4.04813         0.000886     -0.051470     -0.100746
O	      4.24268      6.36618      4.17036         0.057608      0.005317      0.014273
O	      4.33284      4.13519      6.35438        -0.094524      0.095494     -0.009394
O	      6.41424      6.08741      6.30939        -0.038685      0.114706     -0.093345
O	      6.34562      4.22537      8.35783        -0.004982     -0.034311      0.114605
O	      8.42862      6.25461      8.43451         0.072035     -0.062526      0.027024
O	      4.28099      8.39013      6.19631         0.003943      0.013923      0.398212
O	      4.23903      6.21653      8.51197        -0.057672      0.015204      0.315402
O	      6.45209      8.34042      8.37601        -0.163624      0.076501     -0.032865
O	      6.25514      6.23000     10.49236        -0.119334     -0.018620      0.082939
O	      8.54390      8.45712     10.41256         0.005816      0.081517      0.007051
