# total energy = -231.65033579 eV
 
CRYSTAL
PRIMVEC
0.027278 6.315998 6.446467 
6.315917 -0.009999 6.483385 
4.198055 4.222888 0.005693 
PRIMCOORD
36 1
Li	      4.25662     10.33772      6.57877        -0.057905      0.108609      0.016211
Li	      2.11759      6.31216      8.40142         0.000339      0.053569     -0.013602
Li	      4.19039      8.49390      8.43573        -0.058403     -0.001789      0.095104
Li	      2.16945      4.15661      2.19118        -0.012712     -0.044712      0.059758
Li	      4.13783      4.16019      4.29757        -0.007745      0.004301      0.019376
Li	      4.22643      2.09401      6.45919         0.001916     -0.009770     -0.027789
Li	      4.29189      8.37027      4.53132         0.041772     -0.031454     -0.002184
Li	      6.15248      8.47908      6.45407         0.049120     -0.032732     -0.000442
Li	      4.17482      6.48802      6.53089         0.020482     -0.091754      0.074647
Sc	      2.14294      6.21912      4.44381         0.068475     -0.112669      0.007339
Ti	      4.31041      6.16220      2.17664         0.557700     -0.471207      0.180433
Ti	      6.28428      4.25038      6.46518        -0.166484      0.194949     -0.064807
Fe	      8.43063      4.21980      4.35706        -0.063877      0.000724     -0.089274
Fe	      6.22053      2.13362      4.29278         0.029157      0.093214     -0.063789
Fe	      4.19191      4.23327      8.54208        -0.005638      0.017342      0.011399
Fe	      6.33387      6.34337      8.56256         0.037445     -0.047143     -0.092702
Co	      2.11384      2.24616      4.33017         0.029298     -0.054839     -0.068230
Cu	      2.25181      8.38492      6.50071        -0.096544      0.064468      0.068549
O	      1.98538      2.12466      2.27531        -0.447403     -0.112017     -0.022116
O	      4.18555      4.35553      2.11283         0.064243      0.502343      0.065542
O	      4.27439      2.01438      4.33878        -0.010233      0.031361      0.076950
O	      6.33007      4.17776      4.45595         0.019855     -0.086924      0.101857
O	      6.39115      2.21614      6.52813        -0.119886      0.039100     -0.036074
O	      8.32567      4.13389      6.34183        -0.071070      0.050864      0.050412
O	      2.11672      4.22018      4.35165        -0.011226      0.245956      0.057367
O	      4.18121      6.36307      4.10918        -0.059987     -0.029581     -0.113824
O	      4.37855      4.19145      6.54778         0.277672     -0.012401     -0.026024
O	      6.36799      6.20395      6.54584         0.006718     -0.209549      0.069193
O	      6.30940      4.23145      8.47657        -0.002351     -0.014750     -0.101034
O	      8.44613      6.40274      8.65846         0.006257     -0.033503     -0.025664
O	      2.15476      6.37897      6.42308        -0.073452     -0.097836      0.000456
O	      4.16687      8.42293      6.46765         0.085425      0.011611      0.028942
O	      4.32850      6.22988      8.71641        -0.055960      0.065534     -0.030729
O	      6.36987      8.36497      8.65617        -0.010619      0.021026      0.013022
O	      6.30755      6.39419     10.66724         0.054151     -0.044158     -0.027471
O	      8.30358      8.46648     10.61500        -0.018530      0.033818     -0.190803
