# total energy = -232.76215473 eV
 
CRYSTAL
PRIMVEC
0.033793 6.085860 6.297159 
6.445268 0.010033 6.320041 
4.324694 4.100351 -0.020516 
PRIMCOORD
36 1
Li	      0.12309      6.04703      6.31090         0.009074     -0.021578     -0.017522
Li	      2.14217      6.08519      8.30333         0.051098     -0.037361     -0.019482
Li	      2.15517      4.06651      2.10858        -0.012284     -0.040938      0.047286
Li	      4.19539      4.11959      4.22223        -0.035251      0.110193      0.172520
Li	      6.46466      4.08541      6.33923        -0.173817      0.059259     -0.013518
Li	      0.20390      4.07142      4.21868         0.027398     -0.043536      0.057248
Li	      2.12063      5.98740      4.29996         0.046262     -0.059515      0.060339
Li	      2.19736      4.16151      6.21785         0.141812     -0.007974     -0.009693
Li	      4.31291      4.07073      8.32857        -0.024765      0.146492     -0.159718
Sc	      8.65840      4.09474      4.24917        -0.033827     -0.232843     -0.266884
Ti	      6.49809      2.11517      4.22421         0.254876      0.207795     -0.119339
Ti	     10.59789      6.12824      8.46369         0.172614      0.021843      0.489625
Fe	      2.23118      8.07736      6.36319         0.019063     -0.152918     -0.045344
Fe	      4.31723      2.16819      2.01508         0.044545     -0.170793     -0.096953
Fe	      2.10913      2.16377      4.27016        -0.216522     -0.284094      0.053977
Fe	      6.50726      6.01080      8.30887        -0.233459      0.020733     -0.040181
Co	      4.31941      2.17222      6.33803        -0.210440     -0.254541      0.127157
Co	      4.28931      5.95395      6.29242        -0.269244      1.183888     -0.026047
O	      2.19137      2.03627      2.12457         0.033627      0.006475     -0.017185
O	      4.33287      4.17629      2.05329        -0.032213      0.152580     -0.013183
O	      4.34350      2.08042      4.13259         0.023473     -0.025068      0.300494
O	      6.53587      4.03679      4.18357         0.055726     -0.168643     -0.051661
O	      6.49912      2.03781      6.27679         0.133163      0.015574     -0.014374
O	      8.65141      4.05539      6.25443         0.023787      0.165576      0.051362
O	      2.16659      3.99259      4.22418        -0.039873      0.294317     -0.136846
O	      4.41881      6.12327      4.04339        -0.062184     -0.045539     -0.613703
O	      4.31257      4.08763      6.29832         0.215690     -0.463638      0.020475
O	      6.49142      6.10827      6.30091        -0.112725     -0.046362      0.058576
O	      6.45047      4.00231      8.39924         0.068248     -0.134047      0.054881
O	      8.70230      6.12717      8.42297        -0.033768     -0.038610     -0.277642
O	      2.21238      6.16379      6.29471         0.234488     -0.063047      0.007354
O	      4.26023      8.08697      6.36289        -0.006679     -0.200118     -0.023017
O	      4.46802      6.14960      8.41344         0.068199      0.063194      0.205189
O	      6.40943      8.10282      8.53533        -0.035201      0.013968      0.183975
O	      6.44327      6.18262     10.40633         0.078495      0.041380      0.034043
O	      8.43254      8.13220     10.55042        -0.169387     -0.012104      0.037791
