# total energy = -91.92309669 eV
 
CRYSTAL
PRIMVEC
-1.999585 4.099763 -1.998892 
1.968230 4.067306 1.966581 
1.985493 0.016818 -5.949904 
PRIMCOORD
16 1
Li	      0.02738      3.97487     -3.90643        -0.188502     -0.027663     -0.525319
Li	      1.86886      3.97240     -5.74401         0.216376     -0.053433     -0.278881
Li	      0.03801      1.99600     -1.97863        -0.093672     -0.334113      0.089099
Li	      1.87943      1.99150     -3.81619         0.157318     -0.293328     -0.149067
Mn	     -1.93769      3.97699     -1.94040        -2.294560     -0.187153      0.313046
Mn	     -0.02119      5.95020     -1.94984        -1.330987      2.403903      0.547628
Ni	      1.91464      5.94911     -3.88479         1.128280      1.172376     -1.375665
Ni	      1.90150      3.96320     -1.93026         1.015440     -0.976558      0.848483
O	     -0.01500      3.93695     -5.90512        -0.011072      0.172909     -1.205981
O	      1.78639      5.89615     -1.95294         1.804384      1.210909      1.072792
O	      2.02959      4.01612     -3.86211         0.748696     -1.120062     -0.735064
O	      1.89526      3.79539      0.04897         0.456150     -0.005617      1.236973
O	     -0.01772      6.00678     -3.75654        -0.919739      0.054995     -1.967699
O	     -0.00530      6.10021     -0.09272        -0.095421      0.504306      1.506732
O	     -0.07938      4.12701     -1.92743        -0.177814     -1.759407      0.037193
O	      0.06029      1.82331     -0.02400        -0.414877     -0.762065      0.585731
