# total energy = -229.46690245 eV
 
CRYSTAL
PRIMVEC
0.023452 6.363219 6.255692 
6.320152 0.009488 6.269638 
4.210499 4.248290 0.009344 
PRIMCOORD
36 1
Li	      8.33409      2.18686      6.26499        -0.017448      0.023576      0.006059
Li	      6.23666      4.17934      2.13788        -0.023936     -0.029238      0.036527
Li	      6.43462      8.47230     10.35497         0.030230      0.013007     -0.033273
Li	      6.27944      2.15429      8.32718         0.024735      0.029571     -0.015566
Li	      4.21593      4.26994      4.05757        -0.007245      0.013893     -0.029674
Li	      6.39326      4.18035      6.38259         0.025984     -0.027994      0.073273
Li	      8.40948      6.44644     10.30320        -0.006818      0.034957      0.047836
Li	      8.42030      8.40371      8.45925        -0.015313     -0.022594     -0.029761
Li	      6.41922      6.39124      8.43495        -0.000765      0.000805      0.015627
Sc	      4.27398      2.18399      6.36543         0.100120      0.049083     -0.001896
Ti	      2.08548      2.04644      4.04594        -0.000975     -0.209224     -0.312610
Ti	      4.17623      6.30550      6.38265        -0.076761     -0.167450      0.192724
Fe	      6.35431      0.12082      6.30311         0.096096     -0.062674     -0.088490
Fe	      8.43408     10.53510     10.41757        -0.014013      0.115167     -0.089029
Fe	      6.29296      4.26154     10.29646        -0.033152     -0.001196      0.144017
Fe	      6.30315      8.50835      6.36711         0.116562     -0.019410     -0.141161
Ni	      4.24104      2.16779      2.11405        -0.032438     -0.035810      0.035049
Ni	      8.42914      4.29827      8.37825         0.002223      0.000966     -0.035179
O	      2.12785      2.16932      2.19086        -0.112093     -0.116543      0.253913
O	      4.18155      4.19470      1.98626         0.107939      0.143589      0.104126
O	      4.09877      2.07537      4.19405        -0.066664      0.006732      0.094834
O	      6.40018      4.38728      4.18367        -0.099513      0.168716     -0.007193
O	      6.31022      2.05318      6.23864        -0.017606      0.144414      0.001411
O	      8.50061      4.30693      6.22158        -0.035881      0.005264     -0.030286
O	      2.06338      4.11237      4.24008         0.044808     -0.019259      0.122955
O	      4.33367      6.40361      4.31796         0.039875     -0.036345     -0.013116
O	      4.17100      4.36368      6.26810         0.016653      0.086844      0.019342
O	      6.25759      6.43169      6.20962        -0.044634     -0.028382     -0.007586
O	      6.39267      4.23579      8.41662        -0.136207     -0.007292     -0.142204
O	      8.43619      6.34957      8.34546         0.025947      0.135057     -0.048736
O	      2.21720      6.30866      6.22295         0.046640      0.042271      0.039536
O	      4.27409      8.40244      6.24627        -0.084680      0.016009     -0.141169
O	      4.23709      6.43030      8.27530        -0.024772     -0.127487     -0.188302
O	      6.29321      8.49631      8.26795         0.127854     -0.016198      0.151616
O	      6.27149      6.28837     10.52948         0.084194      0.067296     -0.038650
O	      8.50548      8.59722     10.42468        -0.038947     -0.170120      0.055036
