# total energy = -232.67541226 eV
 
CRYSTAL
PRIMVEC
0.047062 6.455378 6.188747 
6.387844 0.036609 6.198815 
4.277206 4.328896 0.005803 
PRIMCOORD
36 1
Li	      0.01221      0.07655      0.08295         0.000716     -0.002029     -0.008870
Li	      6.26577      4.35757      2.08754        -0.090787      0.021881      0.008441
Li	      4.27197      2.27549      2.06132         0.008599      0.021012     -0.004197
Li	     10.65442      6.42466      8.16369        -0.020804     -0.052617      0.043653
Li	      4.36848      4.30788      4.13107         0.040797      0.015583      0.000835
Li	      4.40418      2.33077      6.23217         0.034597      0.058284     -0.004823
Li	      6.24206      4.25254      6.23021         0.023523     -0.033953     -0.018453
Li	      4.32193      6.38185      6.26350        -0.028732      0.003195      0.037156
Li	      4.33663      4.32324      8.13442         0.005640      0.035481      0.031397
Sc	      2.28735      4.39928      6.28155         0.037589     -0.007449      0.025394
Ti	      4.25707      8.52199      4.14692         0.084580     -0.259394      0.099167
Ti	      4.22418      0.11284      4.11635        -0.210153      0.285316     -0.177761
Fe	      2.03263      2.11328      0.10509         0.120066     -0.034018      0.112669
Fe	      2.31840      4.33624      1.97524        -0.119872      0.002495      0.002854
Fe	      6.40227      6.43036      4.15733         0.039370     -0.039171     -0.004641
Fe	      8.58243      6.53721     10.30924         0.023648     -0.081423     -0.015794
Fe	      6.41670      6.46222      8.17991         0.010046      0.038565     -0.114889
Ni	      6.36943      2.21329      4.12712        -0.048042      0.052600      0.012840
O	      2.15347      2.25426      2.10140        -0.002841     -0.006828     -0.110410
O	      4.19088      4.33535      2.11895         0.067314      0.000342     -0.021562
O	      4.21072      2.01885      4.18259         0.008727     -0.311416     -0.027921
O	      6.53701      4.40561      4.10063         0.208290     -0.013780      0.033557
O	      6.49347      2.19142      6.11754        -0.020209     -0.014481      0.174800
O	      8.55664      4.20941      6.15218         0.007379     -0.019518     -0.081463
O	      2.01944      4.23249      4.11765        -0.132891      0.043460     -0.007228
O	      4.37786      6.61948      4.08239        -0.055158      0.398613      0.031954
O	      4.24324      4.34931      6.15620        -0.086643      0.002830      0.006861
O	      6.39249      6.56616      6.15923        -0.009197      0.065597      0.126739
O	      6.46717      4.44586      8.36507         0.018440     -0.015257      0.143143
O	      8.47022      6.39800      8.30005        -0.028757     -0.009301     -0.115960
O	      2.19424      6.52461      6.14537        -0.023471      0.010575      0.113077
O	      4.28663      8.65833      6.05250        -0.049628     -0.029499     -0.305286
O	      4.39925      6.44204      8.41050         0.023820     -0.009156      0.234692
O	      6.42708      8.52475      8.31280         0.017324     -0.009406     -0.170640
O	      6.33515      6.44028     10.28643        -0.077999     -0.138178     -0.026103
O	      8.62733      8.73526     10.36558         0.224719      0.031045     -0.023230
