# total energy = -236.94580800 eV
 
CRYSTAL
PRIMVEC
0.016824 6.271741 6.367528 
6.353376 0.022130 6.362409 
4.253608 4.195884 -0.003385 
PRIMCOORD
36 1
Li	      8.46720      8.39796     12.62315        -0.024075     -0.030696     -0.049617
Li	      4.33213      8.35953      8.52398         0.005441     -0.031049      0.010014
Li	      6.45449      8.32666     10.52689         0.011339     -0.010187     -0.005283
Li	      4.23078      4.17321      4.26524        -0.015719      0.018436      0.035023
Li	     10.52059      8.40919     10.58624         0.003686     -0.001899     -0.033842
Li	      8.46544      6.45785     10.56075        -0.007357      0.055258     -0.029962
Li	      6.40859      8.36812      6.46365        -0.001963     -0.009534      0.075885
Li	      8.38539      8.35705      8.57813        -0.043761     -0.017285     -0.010820
Li	      6.40931      6.43170      8.53098         0.010837      0.023258      0.004782
Sc	      4.25845      6.29199      6.36293        -0.037079      0.041665      0.036678
Ti	      0.08692      6.13861      6.27302         0.130817     -0.215747     -0.300224
Ti	      2.09009      4.22106      2.20463        -0.285028      0.105795      0.332925
Fe	      6.34562     10.30869      8.52405         0.029693      0.149723      0.009164
Fe	      4.29579      6.16390     10.50045         0.060773      0.136436     -0.000468
Fe	      4.24346      6.27441      2.21022        -0.045758      0.120963      0.010167
Fe	      2.16017      2.12695      4.22293        -0.067073      0.072356      0.115696
Fe	      4.24956      2.21294      6.35406        -0.115615     -0.076744      0.029260
Fe	      6.34950      4.14422      6.34037         0.049545      0.060876     -0.017280
O	      2.14733      2.16640      2.20129         0.069215     -0.050470     -0.047485
O	      4.22645      4.16488      1.99692        -0.061135     -0.099224     -0.023926
O	      4.16029      2.01322      4.36580         0.061993      0.005964     -0.042188
O	      6.43193      4.26405      4.21221        -0.060219     -0.012900     -0.057425
O	      6.27010      2.00569      6.43191         0.039719     -0.139588     -0.093355
O	      8.60365      4.23010      6.40547         0.086874     -0.004484      0.023098
O	      2.18747      4.16168      4.06189         0.016276      0.036465     -0.323096
O	      4.34879      6.30140      4.28066         0.011079      0.002592      0.057972
O	      4.23263      4.18772      6.35953        -0.077075     -0.001560     -0.023421
O	      6.38291      6.32869      6.28383         0.046862      0.057952     -0.001526
O	      6.54445      4.22557      8.38759         0.303683      0.058642      0.144148
O	      8.45898      6.19612      8.40664        -0.021423     -0.126296     -0.015314
O	      2.05121      6.30533      6.44498        -0.097280     -0.023183     -0.033774
O	      4.28034      8.45659      6.34130        -0.002644      0.236550      0.003135
O	      4.15681      6.30970      8.48583         0.002216      0.000635     -0.048153
O	      6.34616      8.45430      8.52164        -0.003825     -0.135916     -0.018208
O	      6.31445      6.30368     10.74782         0.053507     -0.027526      0.258801
O	      8.50840      8.48961     10.59186        -0.026525     -0.169279      0.028618
