# total energy = -220.03896001 eV
 
CRYSTAL
PRIMVEC
0.006384 6.091118 6.558832 
6.258961 0.020217 6.544901 
4.176316 4.055153 0.009645 
PRIMCOORD
36 1
Li	      4.19646     10.12970      6.58228         0.027406     -0.015397     -0.129029
Li	      2.12560      6.09313      8.75051         0.020356      0.024910     -0.007207
Li	      4.09689      0.03332      4.28252        -0.004106      0.010150      0.035351
Li	      2.11326      4.06063      2.27244        -0.016932      0.027431      0.036356
Li	      6.30382      6.02502      4.36196         0.015889      0.031786      0.080720
Li	      6.20441      4.08232      6.40892        -0.017151      0.039466     -0.165511
Li	      6.24894      8.17810      6.69999        -0.041523      0.021819     -0.021147
Li	      4.20970      4.16040      8.67295         0.054170     -0.049727      0.010582
Li	      6.15728      6.09097      8.72598         0.008131     -0.003979      0.000883
Sc	      6.23956      8.16846     10.78722        -0.149716     -0.011475      0.133027
Ti	      8.28613      2.12361      6.66245         0.018150     -0.045534     -0.216778
Ti	      8.14368      6.08310      6.65578        -0.477389     -0.083730     -0.111328
Mn	      2.09648      6.04122      4.37185        -0.049841      0.126665      0.045753
Co	      0.04182      4.02736      4.34041        -0.026982      0.193660     -0.856270
Cu	      4.21253      8.14858      8.71011        -0.112477      0.084801     -0.017550
Cu	      4.19374      6.06397      2.19426         0.074751      0.024570     -0.050424
Cu	      4.18586      4.04358      4.37588        -0.007664     -0.015330     -0.088089
Cu	      4.17868      6.08008      6.63150         0.205263     -0.082758      0.093598
O	      6.28376      3.96037      9.05295         0.028257     -0.138057      0.524968
O	      4.17732      6.20443      8.59699        -0.020297      0.157039      0.195410
O	      2.13462      2.07781      2.00686         0.208868     -0.018261      0.129487
O	      4.16889      4.05656      2.36697         0.047190     -0.159101     -0.007952
O	      4.17414      2.05454      4.62333        -0.017165     -0.535267      0.219512
O	      6.21268      4.08057      4.35897         0.092056      0.025275     -0.053600
O	      6.39828      2.02596      6.45106         0.127958      0.048640      0.016956
O	      8.37862      4.08586      6.52265         0.003141     -0.158047      0.093156
O	      2.11758      4.13476      4.38331        -0.152804     -0.148790      0.144545
O	      4.08309      6.07299      4.53702         0.075130      0.443177      0.079312
O	      4.18296      4.00672      6.48085         0.007428     -0.175173     -0.023261
O	      6.31053      6.06263      6.63347         0.601630     -0.023804      0.072889
O	      8.46695      6.12147      8.55203        -0.051378     -0.037776     -0.141611
O	      2.17502      6.21356      6.57863        -0.242322      0.153525     -0.015975
O	      4.09776      8.09438      6.26328        -0.131009      0.198772     -0.005097
O	      6.16882      8.13084      8.76726        -0.159431      0.055241     -0.092005
O	      6.41730      6.01618     10.86335        -0.006315     -0.012666      0.024264
O	      8.34336      8.04186     10.98866         0.068727      0.047943      0.066063
