# total energy = -215.97458183 eV
 
CRYSTAL
PRIMVEC
0.002899 6.239941 6.239070 
6.334149 0.001711 6.240201 
4.219656 4.157606 0.004320 
PRIMCOORD
36 1
Li	      2.01601      2.09539      0.15862        -0.028402     -0.020181      0.068959
Li	      2.16686      6.16921      8.22174         0.061947     -0.048465     -0.059253
Li	      4.22446      8.32648      8.27505        -0.038969      0.037048     -0.019888
Li	      6.21053      2.14484      4.17219        -0.051010     -0.010405     -0.028512
Li	      6.36013      2.07184      8.19447         0.028209     -0.046337      0.020762
Li	      4.26956      2.07160      6.26298         0.043763     -0.016453      0.001157
Li	      6.32653      8.28511      6.39082        -0.041265     -0.003312     -0.036263
Li	      4.26995      6.25067      6.37441        -0.035586      0.044292      0.012567
Li	      6.30434      6.29462      8.18330         0.005876      0.040059      0.047527
Sc	      6.42424      6.15866      4.18988        -0.079154      0.185100     -0.306914
Ti	      4.18468      8.35391      4.23781         0.318845      0.094379      0.423906
Ti	      2.12740      6.26118      4.21410        -0.036376     -0.236233      0.515115
Mn	      4.15773      4.18097      8.23210        -0.100986      0.045193      0.101569
Cu	      8.46635      4.13117      8.21433         0.038122     -0.025725      0.329517
Ni	      6.32980      0.10010      6.30266         0.043601     -0.002462      0.175138
Ni	      4.22704      6.26219     10.37332         0.018931      0.097393      0.154913
Ni	      4.28677      4.09466      4.14547        -0.174107      0.080880     -0.153875
Ni	      6.34238      4.11559      6.28038        -0.005503     -0.491602      0.096400
O	      2.10739      2.17079      2.10226        -0.057984      0.007743     -0.000767
O	      4.10047      4.17857      2.09695         0.209081      0.015046      0.160210
O	      4.21017      2.07221      4.12065         0.005887     -0.095450      0.076033
O	      6.31874      4.14295      4.22088         0.085606     -0.012568     -0.101783
O	      6.34532      2.15521      6.22857         0.014075      0.530512     -0.085923
O	      8.43729      4.16447      6.26628        -0.422468      0.000190     -0.517897
O	      2.04476      4.22580      4.08105        -0.165820      0.181268      0.275070
O	      4.12580      6.30079      4.20736        -0.125889      0.136430      0.015369
O	      4.29163      4.13912      6.33033         0.118283      0.046457      0.038798
O	      6.32037      6.09227      6.22290         0.010336      0.090979      0.065785
O	      6.28481      4.15661      8.39794        -0.220912      0.024029     -0.009098
O	      8.41857      6.32084      8.46658         0.030091      0.002546     -0.038330
O	      2.04151      6.27870      6.08070         0.213366     -0.013389     -0.455491
O	      4.24065      8.36918      6.07537        -0.000864     -0.196073     -0.344375
O	      4.21439      6.07258      8.37748         0.069177     -0.144297     -0.205347
O	      6.53793      8.31921      8.28893         0.133796     -0.022776      0.019662
O	      6.40264      6.15713     10.43718         0.097946     -0.188220     -0.208803
O	      8.55397      8.26561     10.27311         0.038358     -0.085595     -0.025939
