# total energy = -216.58511718 eV
 
CRYSTAL
PRIMVEC
0.017830 6.255775 6.639340 
6.133380 0.052565 6.603253 
4.113259 4.172333 0.009850 
PRIMCOORD
36 1
Li	      4.08521      6.28898     10.84942         0.038603      0.013135     -0.004101
Li	     10.14095      6.41150      9.01989        -0.076147      0.024097      0.029335
Li	      4.07518      4.29425      4.54406        -0.009618      0.009043      0.140436
Li	      8.12505      6.44514      6.83230        -0.036754      0.062434      0.020863
Li	      6.20637      4.13857     10.84484        -0.036561      0.002925      0.006859
Li	      8.23640      6.22462     10.76465        -0.010430      0.030288     -0.015339
Li	      4.16308      6.21282      6.70948        -0.021016     -0.006940     -0.001043
Li	      4.18197      4.33368      8.74955         0.031012     -0.175415     -0.059689
Li	      6.19579      6.21216      8.88551        -0.032578      0.089600      0.030923
Sc	     10.20936      4.24469      6.62168         0.139552     -0.114372     -0.075546
Ti	      8.31824      8.32711     12.88238         0.273496     -0.148459     -0.407195
Ti	      5.93186      2.11028      4.37262        -0.374394     -0.222099     -0.126925
Mn	      6.12140      6.28644      4.51727        -0.004525     -0.127689      0.006139
Cu	      4.11849      8.33712      8.86526         0.129211     -0.056407      0.060137
Cu	      2.15691      4.16217      6.55399        -0.091631      0.058934      0.027578
Ni	      6.16903      4.23158      2.28150         0.019694     -0.024168      0.001445
Ni	      2.02196      4.14828      2.28196        -0.644118      0.725420     -0.032258
Ni	      6.09640      4.23183      6.69465        -0.081170      0.011182     -0.061920
O	      4.05885      4.22664      6.75973        -0.062629      0.029754      0.015164
O	      8.21998      6.07449      8.80266         0.237482      0.146836      0.047220
O	      4.08222      6.47531      8.84391         0.213249     -0.115488      0.041864
O	      2.18535      2.12072      2.43206         0.066907     -0.216649      0.106284
O	      4.06842      4.00398      2.15871         0.138569     -0.048173     -0.219983
O	      4.09848      2.12215      4.59298         0.287489      0.011463      0.104917
O	      6.15394      4.22528      4.46104        -0.009324      0.013307      0.030342
O	      6.26110      2.14021      6.42713         0.074019     -0.091673     -0.023667
O	      8.17438      3.96204      6.69681         0.078853     -0.083580      0.128332
O	      2.07893      4.02112      4.37088        -0.065253     -0.067869     -0.260915
O	      4.29101      6.25068      4.38252         0.160472      0.041636     -0.108367
O	      6.15842      6.29520      6.42023        -0.033646      0.001398     -0.191697
O	      6.23012      4.20801      8.72767        -0.051924     -0.212232      0.083924
O	      2.05851      6.38507      6.76152         0.025433      0.314584     -0.091993
O	      4.09441      8.38209      6.45117        -0.289105      0.008526     -0.156234
O	      6.04492      8.44502      9.02512         0.005024     -0.185673      0.275174
O	      6.12352      6.48942     11.11324         0.023590      0.294420      0.105679
O	      8.14760      8.37476     11.05699        -0.011832      0.007906      0.574256
