# total energy = -217.67749251 eV
 
CRYSTAL
PRIMVEC
-0.033339 6.311185 6.362249 
6.172393 -0.025776 6.353921 
4.088916 4.175969 0.008684 
PRIMCOORD
36 1
Li	      6.12837     10.40037      8.54617        -0.027615      0.064533      0.001913
Li	      4.11732      8.40113      8.50598        -0.028966      0.014870     -0.025922
Li	      6.11229      6.23961      4.37776        -0.033718     -0.009588      0.068406
Li	      8.12270      6.25969      6.37782         0.038305      0.031441      0.028532
Li	      6.07009      4.36299      6.42733        -0.012549     -0.028637      0.035166
Li	      6.11676      4.21895     10.49772         0.007942      0.001232      0.012724
Li	      4.19245      6.17567      6.42135        -0.049477     -0.027008     -0.010913
Li	      4.11203      4.22040      8.47463         0.021961     -0.015722     -0.003165
Li	      6.12019      6.27207      8.40333         0.031681      0.052768     -0.009982
Sc	      6.11730      8.25488      6.47039         0.122527      0.001249     -0.065546
Ti	      2.07686      2.09143      0.04488         0.142831      0.050367      0.048939
Ti	      4.09326      6.40839     10.41431        -0.098438      0.031639     -0.479626
Mn	      4.12983      4.14982      4.25981        -0.045636      0.103063      0.106533
Cu	      6.14153      6.29183     12.71101        -0.012985     -0.109282     -0.072904
Cu	      4.07206      6.27844      2.14753         0.074601      0.100157     -0.053946
Cu	      2.00041      4.19274      2.17071        -0.101357      0.063950      0.060972
Cu	      8.16729      6.28292     10.54313        -0.022398     -0.067031     -0.055465
Ni	      6.12419      8.41529     10.46571         0.083939      0.057178      0.160510
O	      6.21622      4.03937      8.53076        -0.133029      0.191009     -0.091464
O	      8.26212      6.16872      8.61437        -0.051149      0.066236     -0.053601
O	      1.99794      2.14839      1.96974         0.041164     -0.239597     -0.171206
O	      4.03717      4.22299      2.31001         0.076888     -0.192387     -0.088751
O	      4.12435      2.09022      4.22892        -0.088193     -0.125187      0.015602
O	      6.11758      4.16680      4.23909         0.108293      0.134643      0.012803
O	      6.25033      1.95923      6.42771        -0.039666      0.092061     -0.298837
O	      8.25888      4.09204      6.42335        -0.051464     -0.034642     -0.206911
O	      2.18703      4.06539      4.20094         0.060699     -0.128519      0.234207
O	      4.05893      6.08052      4.16271        -0.090257     -0.103622      0.295145
O	      4.09070      4.18409      6.14899        -0.082092     -0.056382      0.204543
O	      6.11314      6.30950      6.41458         0.031184     -0.032164      0.019524
O	      1.97953      6.40928      6.19217         0.087573      0.042084      0.101140
O	      3.98422      8.44980      6.33906        -0.125784     -0.030028     -0.021987
O	      4.03301      6.31644      8.62349         0.079089      0.057258      0.384869
O	      6.16911      8.42560      8.44482        -0.044570     -0.011987     -0.121772
O	      6.04496      6.35598     10.50549        -0.010359     -0.102558     -0.025255
O	      8.14110      8.61415     10.74043         0.141025      0.158601      0.065723
