# total energy = -92.37656241 eV
 
CRYSTAL
PRIMVEC
-2.009892 4.120896 -2.009195 
1.978376 4.088272 1.976718 
1.995728 0.016905 -5.980573 
PRIMCOORD
16 1
Li	      0.02767      4.01596     -3.94681        -0.150265     -0.013717     -0.431745
Li	      1.88818      4.01346     -5.80338         0.166547     -0.041939     -0.222248
Li	      0.03840      2.01663     -1.99908        -0.076170     -0.273890      0.076831
Li	      1.89886      2.01209     -3.85563         0.127472     -0.234462     -0.118213
Mn	     -1.95771      4.01809     -1.96045        -1.853411     -0.145008      0.271766
Mn	     -0.02141      6.01170     -1.96998        -1.050783      1.929843      0.427318
Ni	      1.93442      6.01060     -3.92495         0.888234      0.921996     -1.093886
Ni	      1.92115      4.00416     -1.95021         0.798339     -0.759196      0.691120
O	     -0.01516      3.97764     -5.96615         0.031152      0.166991     -1.028243
O	      1.80486      5.95710     -1.97313         1.412892      0.984579      0.870246
O	      2.05057      4.05763     -3.90203         0.627789     -0.912640     -0.604125
O	      1.91485      3.83462      0.04948         0.375748     -0.014694      1.028645
O	     -0.01791      6.06886     -3.79536        -0.741692      0.008686     -1.542660
O	     -0.00536      6.16326     -0.09367        -0.071381      0.415525      1.173098
O	     -0.08019      4.16967     -1.94736        -0.190430     -1.396640      0.025102
O	      0.06092      1.84216     -0.02425        -0.294044     -0.635434      0.476994
