# total energy = -217.56457859 eV
 
CRYSTAL
PRIMVEC
-0.030780 6.144636 6.191035 
6.457533 -0.042677 6.204041 
4.286822 4.087522 -0.011122 
PRIMCOORD
36 1
Li	      6.45656     -0.02896      6.19121         0.005254      0.043831     -0.010450
Li	      6.28257      4.10258      2.10054        -0.004041     -0.081776      0.020632
Li	      4.33888      0.08654      4.14750         0.036323     -0.048825     -0.000026
Li	      6.31959      2.02959      4.16724         0.042160      0.004606     -0.013754
Li	      4.35895      5.98424      2.10860         0.005501      0.057228     -0.049787
Li	      2.19442      1.99741      4.08002        -0.041389     -0.056283      0.000658
Li	      2.19686      6.07674      4.14800        -0.004902     -0.007195      0.061698
Li	      2.21495      4.16002      6.16283         0.060416      0.000268      0.022174
Li	      4.28795      6.08610      6.13536         0.022659      0.028789      0.024234
Sc	      4.40556      8.09968      4.19801        -0.010837      0.067743     -0.100602
Ti	      2.05211      1.89227      0.08922        -0.135859     -0.391836      0.047672
Ti	      8.49650      8.19738      8.38566        -0.135933      0.107660      0.130087
Mn	      6.42269      6.14182      8.27532        -0.010952      0.097797     -0.145955
Cu	      4.27017      2.04303      2.05215         0.016139     -0.057717     -0.002649
Cu	      2.22699      4.09388      2.07498         0.088250      0.002611     -0.106708
Cu	      4.30927      4.09899      4.10828         0.078718      0.340788      0.162325
Cu	      4.31877      1.99371      6.12165        -0.014794     -0.025740     -0.071494
Cu	      6.44058      4.07021      6.14735         0.061658     -0.001400     -0.244849
O	      4.40665      3.95950      6.21874        -0.335678     -0.088385      0.145520
O	      6.46263      6.05469      6.34678        -0.192179      0.235551      0.017443
O	      2.05339      6.22460      6.18993         0.016907      0.353905      0.013549
O	      2.03106      2.02348      1.94360        -0.025274      0.013673     -0.093022
O	      4.30963      4.00996      2.13631         0.041496     -0.151434     -0.138912
O	      4.29646      2.10578      4.01144        -0.000166     -0.241751      0.220871
O	      6.33215      4.08821      4.19587         0.092708     -0.000299     -0.145163
O	      6.55725      2.07327      6.17445         0.379513     -0.145255      0.034071
O	      8.51208      4.11609      6.27674         0.099874      0.001013      0.077373
O	      2.17549      4.06822      4.05122        -0.053062      0.008387      0.059871
O	      4.27077      6.09710      4.11960        -0.045060      0.053061     -0.027567
O	      6.29070      4.19293      8.24875        -0.186169     -0.122366      0.131159
O	      8.39075      6.21638      8.29234         0.060784     -0.107877     -0.122226
O	      4.07522      8.22841      6.20619        -0.047125     -0.040282      0.004785
O	      4.45069      6.07089      8.22081        -0.086316      0.049300      0.075020
O	      6.61180      8.08103      8.18724         0.238574      0.128539      0.074315
O	      6.41746      6.09081     10.15251         0.005478      0.011591      0.125875
O	      8.64067      8.19175     10.26910        -0.022676     -0.037921     -0.176167
