# total energy = -217.52711258 eV
 
CRYSTAL
PRIMVEC
0.041107 6.322575 6.232679 
6.221457 0.038887 6.235844 
4.173249 4.243681 -0.000184 
PRIMCOORD
36 1
Li	      2.14951      8.40616      6.19459        -0.036194     -0.008939     -0.004844
Li	      6.31076     10.39554      8.23196        -0.022663     -0.043469      0.051047
Li	      6.20540      2.15323      4.12790        -0.021948      0.015525     -0.029753
Li	      6.30622      6.35403      4.28037        -0.004549     -0.019029     -0.032840
Li	      4.28486      4.15730      4.32926         0.018304      0.021400     -0.028720
Li	      6.15808      4.35455      6.19904        -0.015100      0.012357     -0.004436
Li	      2.14750      4.20416      6.25274         0.002003     -0.025168      0.058693
Li	      8.21313      8.48188      8.23249         0.024455      0.009262      0.012684
Li	      6.25381      6.46806      8.18068        -0.038002      0.031616     -0.007919
Sc	      4.25009      6.34258      2.13949         0.054145      0.009271      0.003038
Ti	      8.20003     10.53333     10.25341        -0.438421     -0.100484     -0.103217
Ti	      2.05681      4.24869      2.18941        -0.130959     -0.000789      0.313198
Mn	      0.07570      6.31854      6.21090         0.100650      0.022084      0.035148
Ni	      4.22848      8.44106      8.32186        -0.073356      0.036332      0.032642
Ni	      4.20436      8.46496      4.21021         0.055628     -0.049766      0.014530
Ni	      8.31276      6.46897     10.42177        -0.000315      0.050792     -0.071583
Ni	      4.10573      2.19893      6.18923        -0.016648      0.037670     -0.048006
Ni	      4.23560      6.25783      6.25352        -0.093228     -0.017646      0.058019
O	      6.10530      8.44295      8.33265         0.231230     -0.037682      0.004888
O	      2.16044      2.29739      2.06252        -0.104276      0.158465      0.004283
O	      4.12396      4.25073      1.95338        -0.038858      0.077989     -0.027545
O	      4.18245      1.99943      4.08371        -0.055420     -0.073994      0.118916
O	      6.35705      4.24051      4.15741         0.390319     -0.034316     -0.019666
O	      6.16510      1.97151      6.26775         0.080173     -0.038082     -0.051330
O	      8.44424      4.35863      6.19947         0.029532     -0.066662     -0.004933
O	      2.12468      4.30065      4.03927         0.070866     -0.030397     -0.317047
O	      4.14798      6.42061      4.22209         0.104438     -0.085274     -0.081856
O	      4.17961      4.21279      6.26972        -0.016026     -0.045446     -0.017503
O	      6.27171      6.36684      6.22186         0.056277      0.039902     -0.003808
O	      6.39421      4.20514      8.31690         0.190421      0.035765     -0.118666
O	      8.36551      6.28992      8.31851         0.006367     -0.083795     -0.029493
O	      2.00032      6.37480      6.20262        -0.026171      0.008889      0.127909
O	      4.20923      8.58293      6.30729        -0.025568      0.084044     -0.048254
O	      4.16502      6.36316      8.33789        -0.018849     -0.137189      0.201121
O	      6.25177      6.30081     10.54782        -0.108743      0.093186      0.032385
O	      8.39640      8.59689     10.36383        -0.129514      0.153578     -0.017082
