# total energy = -233.30278085 eV
 
CRYSTAL
PRIMVEC
0.035703 6.252745 6.200486 
6.414790 0.034289 6.201500 
4.301425 4.193516 -0.001310 
PRIMCOORD
36 1
Li	      2.19637      2.10597      0.11217         0.002283     -0.000059     -0.025251
Li	      4.13986      2.18133      2.04524        -0.041461      0.048279      0.068225
Li	      0.15276      2.16805      2.10547         0.033990     -0.047651      0.002430
Li	      2.00244      4.06745      2.14418        -0.095344     -0.084258      0.016930
Li	      2.10081      2.11598      4.02350         0.014283     -0.025525      0.038318
Li	      4.21606      4.29443      4.04184        -0.036820      0.023461     -0.049001
Li	      6.46409      4.13374     10.15764         0.001364     -0.052618     -0.015173
Li	      4.49921      4.21031      8.24918         0.045304      0.006645      0.019646
Li	      6.47608      6.06679      8.26516         0.047166     -0.056182      0.016629
Sc	      6.44381      8.39444     10.22629        -0.053637      0.122781     -0.042179
Ti	      4.32469      6.25157     10.24400        -0.136235      0.081594     -0.080151
Ti	      8.63129      6.32453      6.39676         0.135017      0.037134      0.216142
Ti	      6.34500      8.33620      6.16007        -0.122232     -0.045059     -0.045029
Cr	      2.23337      6.26706      4.08235         0.099277      0.037806     -0.062830
Co	      2.07347      0.11850      2.07452        -0.069986      0.034606      0.049756
Cu	      4.28294      6.27662      6.21731        -0.003758      0.010104      0.022358
Ni	      4.27636      4.17127      0.08205        -0.022691     -0.001264     -0.005277
Ni	      6.44441      4.22176      6.30946         0.015433      0.029159     -0.128174
O	      2.14385      1.95360      2.06072         0.044846     -0.021183     -0.028876
O	      4.50461      4.21226      2.05407         0.145637      0.062622      0.142275
O	      4.33789      1.95486      4.19842         0.060458     -0.103081      0.045929
O	      6.62978      4.20144      4.25162         0.175259     -0.002755     -0.121622
O	      6.26589      2.11660      6.15986        -0.145098     -0.014953     -0.045105
O	      8.61180      4.29951      6.13150         0.002731      0.036698     -0.068009
O	      2.18362      4.27683      4.22997        -0.046949     -0.021852      0.156928
O	      4.17337      6.28552      4.27107        -0.137711      0.022112      0.007170
O	      4.24870      4.07699      6.19677        -0.068910     -0.044556     -0.016900
O	      6.62128      6.39138      6.21446         0.210818      0.131042      0.012045
O	      6.45659      4.19109      8.22627        -0.036081     -0.034642      0.240775
O	      8.60174      6.27939      8.25084        -0.040374      0.021118     -0.194938
O	      2.06241      6.17219      6.07441        -0.071523     -0.072679     -0.054388
O	      4.46613      8.32868      6.21846         0.074425     -0.096318     -0.011175
O	      4.19138      6.28364      8.32007         0.017418      0.004201      0.112868
O	      6.48275      8.57271      8.15997         0.008450      0.040716     -0.101643
O	      6.38266      6.30995     10.31033        -0.001140     -0.045203     -0.082830
O	      8.54962      8.42563     10.34466        -0.004209      0.019760      0.010128
