# total energy = -233.32790043 eV
 
CRYSTAL
PRIMVEC
0.014922 6.301830 6.241114 
6.317301 0.008867 6.247659 
4.224211 4.218676 -0.007276 
PRIMCOORD
36 1
Li	      6.22855      4.28475      2.11235         0.017135      0.099325      0.014396
Li	      4.17335      2.22917      2.03312         0.016852      0.047803      0.023453
Li	      6.32890      2.12353      4.21263         0.007016      0.087407      0.019813
Li	      0.10403      2.02787      2.07228         0.032436      0.025780     -0.020872
Li	      2.18971      4.11756      2.14332         0.002332      0.001968      0.025853
Li	      2.04276      2.13745      4.02024        -0.027650     -0.036719      0.014793
Li	      8.48421      6.28424      6.28345        -0.012079     -0.030046      0.046801
Li	      0.05812      4.20028      4.19332         0.039116      0.026206     -0.070277
Li	      4.31757      6.38094      6.22580         0.005176      0.008381      0.034579
Sc	      2.16428      2.14006      0.14435        -0.024750     -0.056052      0.031808
Ti	      4.22586      0.24299      4.12430        -0.003243      0.202268     -0.242162
Ti	      2.24944      6.28213      4.13975         0.232695     -0.026513     -0.039651
Ti	      8.39630      8.39708      8.25310         0.130844      0.034037      0.074583
Cr	      4.25778      4.16940      4.11798         0.156077     -0.063904      0.059042
Co	      6.30810      4.20593      6.25460         0.053343      0.211811      0.004330
Cu	      6.27707      8.35766      6.22968        -0.115682      0.007575     -0.011301
Cu	      6.31023      6.29034      8.26005         0.009289     -0.008001      0.056987
Ni	      4.22864      4.24942      0.08682         0.057893      0.091519      0.142210
O	      2.10520      2.13833      2.06612         0.063124      0.030114      0.034525
O	      4.25625      4.20610      2.17332        -0.005850      0.014665      0.023548
O	      4.24155      2.07605      4.12657        -0.026952     -0.133049     -0.009409
O	      6.35223      4.22867      4.29945         0.019481     -0.013892     -0.156497
O	      6.36632      2.25012      6.24168         0.000372      0.063905     -0.021654
O	      8.50821      4.23954      6.07058        -0.243245     -0.006578      0.040127
O	      2.19866      4.30607      4.19554        -0.008172      0.055334     -0.077799
O	      4.11026      6.19881      4.21029        -0.120178     -0.019445     -0.000484
O	      4.12910      4.16042      6.27431         0.017743     -0.067621     -0.047711
O	      6.31805      6.09266      6.30790        -0.017394     -0.417046     -0.130319
O	      6.17573      4.29930      8.21341        -0.045570     -0.103740      0.080127
O	      8.53190      6.43560      8.45833         0.100333      0.064128      0.050992
O	      2.02625      6.40635      6.07195         0.148482      0.138464     -0.088344
O	      4.29019      8.45870      6.22630         0.019910     -0.046815      0.007172
O	      4.03787      6.13758      8.49558        -0.186974     -0.088883      0.114988
O	      6.44814      8.29100      8.21346        -0.150487     -0.068828      0.005852
O	      6.22803      6.31941     10.35265        -0.128930      0.016982      0.025540
O	      8.46239      8.34045     10.29242        -0.012493     -0.040539     -0.015039
