# total energy = -232.14355953 eV
 
CRYSTAL
PRIMVEC
0.048289 6.381373 6.211677 
6.295131 0.049781 6.211327 
4.213706 4.271612 0.015614 
PRIMCOORD
36 1
Li	      4.22735     10.50116      6.26844        -0.039858      0.010017      0.021544
Li	      2.23948      8.56275      6.22129         0.000721      0.031289      0.056478
Li	      4.24635      8.53996      8.13539        -0.040390      0.030719      0.061802
Li	      8.24680      4.14366      8.26049         0.070452     -0.067358      0.032418
Li	      6.29309      4.26892      6.27377         0.013863      0.129191     -0.054299
Li	      4.25558      8.45721      4.27753         0.019805     -0.035184     -0.002546
Li	      6.19417      8.46278      6.28902         0.044595     -0.082929     -0.024160
Li	      4.34308      6.57429      6.22640         0.110461     -0.014120     -0.016698
Li	      6.27921      6.29995      8.21986         0.015412      0.040103     -0.087367
Sc	      8.42529      6.45310      6.30132        -0.335873     -0.035887     -0.061143
Ti	      2.08549      6.42472      8.13570        -0.123818      0.136835     -0.112627
Ti	      4.37778      6.39229     10.40190         0.043254      0.031933      0.193853
Ti	      2.15841      6.23625      4.22576         0.197725     -0.413495      0.078378
Cr	      4.28774      4.34424      8.24497        -0.071947      0.093982     -0.122359
Co	      6.29197      6.42939      4.19791         0.097428      0.034469     -0.141711
Ni	      6.33919      2.19447      4.19412         0.027809     -0.001777     -0.097632
Ni	      6.35128      2.22341      8.22589         0.035915     -0.054494      0.193518
Ni	      4.25520      4.28057      4.19163        -0.064450      0.031447      0.058868
O	      4.22897      8.53612      6.23139         0.055210      0.001790     -0.028197
O	      2.11028      2.03484      2.16858        -0.007566     -0.123606      0.148349
O	      4.37179      4.33357      2.14979         0.213200     -0.080068     -0.175730
O	      4.24553      2.05838      4.14503        -0.132646     -0.062301     -0.028287
O	      6.40660      4.30898      4.05453         0.073488      0.098375      0.034072
O	      6.26521      2.15961      6.21092         0.110845      0.056348     -0.082164
O	      8.40862      4.32216      6.06890         0.006251     -0.048336     -0.228204
O	      2.14922      4.39744      4.10785        -0.047309      0.230708      0.015315
O	      4.08882      6.36558      4.12762        -0.108914      0.044827      0.080877
O	      4.21674      4.24126      6.24384         0.009769     -0.007221      0.088741
O	      6.34218      6.44486      6.11969         0.004518     -0.100279      0.001076
O	      6.23789      4.25434      8.28653        -0.013305      0.055463     -0.026009
O	      8.40638      6.57428      8.41156        -0.066497     -0.052911      0.033406
O	      2.12645      6.42223      6.17333        -0.028325      0.044218      0.089842
O	      4.18803      6.35770      8.36674         0.004465     -0.018105      0.025469
O	      6.45685      8.76040      8.33731         0.012576      0.089904      0.016182
O	      6.34202      6.47949     10.32187        -0.116751     -0.025435     -0.008659
O	      8.44754      8.65825     10.29808         0.029887      0.031887      0.067601
