# total energy = -235.14953154 eV
 
CRYSTAL
PRIMVEC
-0.035446 6.436771 6.452108 
6.244463 0.022218 6.393770 
4.167266 4.256660 0.010711 
PRIMCOORD
36 1
Li	     10.35688      4.42106      6.49380         0.017167     -0.025440      0.156050
Li	      8.21470      2.18499      6.53801         0.004294     -0.005858      0.031363
Li	      6.23804      4.29349      2.24221        -0.013902     -0.087195     -0.066296
Li	      4.15395      2.09982      2.21218         0.002174      0.089504     -0.049704
Li	      4.08229      0.11165      4.20601         0.055781      0.029756     -0.152278
Li	      6.08076      2.30621      4.32404         0.035496     -0.040173     -0.005719
Li	      6.30217      2.06267      8.36525        -0.097304     -0.111365      0.011212
Li	      4.29906      4.09376      4.18371        -0.101673     -0.008789     -0.171586
Li	      4.12886      4.41734      8.54732        -0.016865      0.000799      0.001630
Sc	      2.16071      2.04175      4.18824         0.031418      0.158677     -0.026506
Ti	     10.31534      8.63388     10.73540        -0.034868      0.169366      0.085854
Ti	      8.35354      6.49235     10.63695         0.031488      0.070436     -0.090834
Ti	      2.14646      4.37238      6.56472         0.153854      0.187203      0.329404
Cr	      6.17931      6.43335      8.57012         0.025416      0.017471      0.040455
Co	      6.26947      4.14012      6.36057        -0.087512     -0.049301     -0.167452
Co	      2.25808      4.16183      2.05907        -1.116146      0.154836     -0.097776
Cu	      4.25434      2.06938      6.30990        -0.031104      0.057834     -0.077648
Ni	      4.12268      6.44520      6.51335        -0.033403     -0.040475     -0.008579
O	      2.02992      2.20010      2.16360         0.264140      0.547167     -0.149006
O	      4.03079      4.29827      2.16169         0.214519     -0.189186     -0.187643
O	      4.11786      2.14809      4.20785         0.002290     -0.092675      0.028190
O	      6.23103      4.31928      4.28603         0.025181     -0.045862      0.202061
O	      6.16003      2.16860      6.40945         0.116725      0.167965     -0.048280
O	      8.27469      4.33246      6.50373         0.203779     -0.313287      0.969852
O	      1.97442      4.33922      4.38062         0.053022     -0.008280     -0.213986
O	      4.05521      6.55176      4.35442        -0.065606      0.103565     -0.046461
O	      4.05069      4.32544      6.42213        -0.171390      0.010767      0.037097
O	      6.25676      6.51775      6.49515         0.009806     -0.001998      0.022122
O	      6.31441      4.40934      8.72730         0.130079     -0.089400     -0.109895
O	      8.23658      6.39574      8.77573         0.124816     -0.236057      0.190714
O	      2.05142      6.28922      6.31892        -0.067446     -0.178224     -0.083542
O	      4.27413      8.52217      6.27108         0.033671      0.054713     -0.189015
O	      4.23453      6.40944      8.50662         0.034058      0.002431      0.176495
O	      6.21232      8.48246      8.42609         0.092967     -0.048325     -0.300679
O	      6.29295      6.33024     10.62846         0.023180     -0.130193      0.003725
O	      8.40310      8.41000     10.74402         0.151896     -0.120406     -0.043340
