# total energy = -236.69918758 eV
 
CRYSTAL
PRIMVEC
0.027852 6.295135 6.457680 
6.217046 0.038494 6.446787 
4.134185 4.179159 0.036469 
PRIMCOORD
36 1
Li	      6.21803      0.12887      6.41303         0.006997     -0.030543     -0.007989
Li	      8.19374      2.15371      6.46624         0.033746      0.004802      0.056610
Li	      6.24840      2.06921      4.41161         0.028034     -0.031470      0.046471
Li	      8.24564      4.21584      8.55208         0.005561      0.010652     -0.057321
Li	      2.08849      2.11752      4.29047        -0.042178     -0.013110     -0.085075
Li	      6.23744      4.16259      6.55895         0.025769      0.054749      0.109887
Li	      8.27602      6.40335     10.74450         0.028523      0.021971     -0.030294
Li	      4.18653      6.28684      6.42884        -0.015741      0.006857     -0.084406
Li	      8.37437      8.32087      8.67167         0.015597     -0.070388      0.069516
Sc	      2.14651      6.33283      8.55060        -0.097853      0.072037     -0.222192
Ti	      8.30398      4.10256      4.47291         0.073737     -0.375480      0.543359
Ti	      4.16535      4.21680      4.36553        -0.092752      0.248715      0.046600
Ti	      6.12310      8.38589      6.43371        -0.415962      0.216527      0.143822
Cr	      6.27102      6.28210      8.62034         0.106714      0.034845      0.056588
Co	      4.06285      2.14169      2.14592         0.263798      0.023497      0.109349
Co	      6.19436      2.19588      8.55484        -0.022320      0.113897      0.145270
Ni	      4.19302      2.12179      6.48801        -0.010342     -0.042691      0.064490
Ni	      4.14772      8.32835      4.30209        -0.021979     -0.099238      0.068756
O	      2.01051      2.09253      2.09832         0.043549     -0.080568      0.049949
O	      4.15197      4.17348      2.34527        -0.030265     -0.834818     -0.074424
O	      4.16493      2.16900      4.29988        -0.068293      0.022268     -0.337514
O	      6.21303      4.18621      4.28082         0.019197     -0.002895     -0.017275
O	      6.18486      2.13928      6.69476         0.128227     -0.067413     -0.293099
O	      8.29796      4.25834      6.31141        -0.034131     -0.065017     -0.489146
O	      2.16507      4.16074      4.44097         0.129865     -0.031275      0.138290
O	      4.15169      6.19331      4.16648         0.018205     -0.351521      0.046051
O	      4.11303      4.23306      6.26860        -0.000525      0.049096     -0.101919
O	      6.26100      6.39842      6.60129        -0.126167      0.069198     -0.031450
O	      6.23069      4.28260      8.68938         0.032052      0.176897     -0.132006
O	      8.29489      6.32404      8.59888        -0.020785      0.029832      0.074236
O	      2.10150      6.14320      6.50803        -0.015991     -0.229714      0.030108
O	      4.23502      8.34074      6.41650         0.220109      0.027521      0.234356
O	      4.21332      6.36646      8.73317        -0.017813      0.571300     -0.052095
O	      6.23080      8.35727      8.47099         0.075997      0.037530      0.006685
O	      6.14683      6.30993     10.66712        -0.143345      0.124864      0.017002
O	      8.29116      8.53202     10.83359        -0.079237      0.409086     -0.041192
