# total energy = -237.89165530 eV
 
CRYSTAL
PRIMVEC
0.012472 6.302947 6.378601 
6.243842 0.043612 6.347069 
4.189806 4.208006 0.001943 
PRIMCOORD
36 1
Li	      4.30013      6.35405     10.59094        -0.084272      0.037146      0.037217
Li	     10.38731      6.54561      8.62509         0.010393     -0.073184      0.016829
Li	      2.04589      2.23443      4.22153         0.030637     -0.125797     -0.036879
Li	      6.20662      4.23311      6.49747        -0.007485      0.051626      0.029983
Li	      6.36130      4.32697     10.46378         0.005236      0.045531      0.131302
Li	      8.26483      6.27633     10.55171         0.052873      0.078993      0.033106
Li	      2.05884      4.24690      6.12881        -0.084476      0.037750      0.047278
Li	      4.38025      4.20437      8.62310        -0.114389      0.046677      0.075646
Li	      6.23422      6.28269      8.65657        -0.021382      0.082915     -0.071908
Sc	      6.28977     10.43967      8.55398         0.073140     -0.009523     -0.082546
Ti	      8.22266      2.24956      6.24314         0.029441      0.103774     -0.168612
Ti	      8.17895      6.38208      6.46566        -0.104521      0.056946      0.056708
Ti	      4.23685      6.35487      6.29559        -0.043935      0.315619     -0.067868
Cr	      4.14944      4.19496      4.23570         0.067207     -0.070362     -0.093453
Co	      4.21317      8.34257      8.49562        -0.109226      0.133690     -0.019738
Co	      8.21565      4.24053      8.52660        -0.016112     -0.066368      0.002839
Co	      6.26882      2.12477      4.27212        -0.077181     -0.055338     -0.135469
Cu	      6.26641      6.31004     12.65129        -0.005459      0.028651      0.115229
O	      2.11428      2.04727      1.93010         0.354682      0.156914      0.168334
O	      4.16055      4.12710      2.12814        -0.118587     -0.442734      0.087684
O	      4.28941      2.16057      4.36992         0.082296     -0.019265      0.068311
O	      6.19512      4.12211      4.20793        -0.026658     -0.073150      0.063469
O	      6.30345      2.19362      6.25164         0.056309      0.185509      0.053873
O	      8.34803      4.24028      6.35613        -0.154273     -0.018276      0.070714
O	      2.18617      4.22145      4.20487         0.035289     -0.064356     -0.138811
O	      4.22789      6.19380      4.40591        -0.009783     -0.013293     -0.033362
O	      4.14527      4.16480      6.25913        -0.043063     -0.040476      0.092856
O	      6.29414      6.34485      6.34233         0.116625     -0.011805     -0.032427
O	      6.29467      4.26501      8.54274         0.147799     -0.037708     -0.093278
O	      8.41058      6.37754      8.26123         0.024385      0.000957     -0.110948
O	      2.21121      6.39144      6.38627         0.231366     -0.059943     -0.002139
O	      4.11361      8.25855      6.28950         0.038039     -0.288120     -0.092354
O	      4.16739      6.28089      8.29683         0.173605      0.197870      0.153466
O	      6.20570      8.38592      8.71361        -0.347110     -0.162538      0.029821
O	      6.28480      6.50302     10.72738        -0.039747      0.108594     -0.215354
O	      8.25603      8.48223     10.74164        -0.121664     -0.036926      0.060479
