# total energy = -92.73765223 eV
 
CRYSTAL
PRIMVEC
-2.020199 4.142029 -2.019499 
1.988521 4.109237 1.986855 
2.005962 0.016991 -6.011243 
PRIMCOORD
16 1
Li	      0.02795      4.05725     -3.98740        -0.112422     -0.000948     -0.338719
Li	      1.90759      4.05473     -5.86306         0.122207     -0.033359     -0.164334
Li	      0.03880      2.03737     -2.01964        -0.056896     -0.213888      0.063374
Li	      1.91838      2.03277     -3.89528         0.096737     -0.180123     -0.091447
Mn	     -1.97784      4.05941     -1.98061        -1.435943     -0.107016      0.227122
Mn	     -0.02163      6.07351     -1.99024        -0.794800      1.486789      0.323937
Ni	      1.95432      6.07240     -3.96530         0.676368      0.699435     -0.842163
Ni	      1.94090      4.04534     -1.97026         0.601010     -0.569259      0.541625
O	     -0.01531      4.01854     -6.02750         0.062768      0.158531     -0.844676
O	      1.82341      6.01835     -1.99341         1.052752      0.777121      0.684652
O	      2.07165      4.09935     -3.94215         0.511250     -0.719412     -0.486049
O	      1.93454      3.87405      0.04998         0.297210     -0.020357      0.831071
O	     -0.01809      6.13127     -3.83439        -0.586859     -0.032276     -1.159879
O	     -0.00541      6.22664     -0.09464        -0.052960      0.329365      0.866249
O	     -0.08102      4.21255     -1.96738        -0.192761     -1.065955      0.016090
O	      0.06154      1.86110     -0.02450        -0.187660     -0.508647      0.373146
