# total energy = -241.00123348 eV
 
CRYSTAL
PRIMVEC
0.025178 6.162592 6.261271 
6.370114 0.008871 6.277762 
4.261904 4.134533 -0.009240 
PRIMCOORD
36 1
Li	      6.32638      0.11867      6.30368        -0.084499      0.006340      0.005385
Li	      8.42941      2.07373      6.26901         0.086604     -0.026692      0.044741
Li	      6.35936      2.12027      4.19630        -0.086598     -0.001450     -0.058443
Li	      8.44518      4.16267      8.27468         0.024631      0.038695     -0.074876
Li	      4.28390      4.10324      4.15961         0.015509     -0.066556      0.095290
Li	      6.39764      4.08821      6.36175        -0.049914      0.136828      0.042069
Li	      6.45376      8.22842      6.33053         0.104281     -0.039900     -0.007415
Li	      8.49452      8.24386      8.34938         0.017096     -0.076731     -0.114554
Li	      6.41654      6.15059      8.28428        -0.003689     -0.013535     -0.024495
Sc	      4.35790      8.30276      8.19675         0.003985      0.132965      0.104145
Ti	      8.49523     10.16542     10.46991        -0.175123      0.147565      0.359846
Ti	      6.37026      6.27087      4.24439         0.416860      0.013141      0.255026
Ti	      8.31174      6.09813     10.46270        -0.252150     -0.012551     -0.044874
Cr	      6.38468      2.08370      8.36125        -0.142501     -0.014794     -0.424269
Co	      2.15786      6.10959      8.27801         0.023907     -0.046846      0.003061
Co	      4.34481      2.19671      6.31516        -0.279228     -0.824748     -0.371707
Co	      4.27765      6.07388      6.28504         0.008921     -0.249138     -0.034827
Co	      4.29146      8.23470      4.18632        -0.028018      0.017658     -0.023745
O	      2.09040      2.05241      2.17848        -0.095018     -0.056147      0.043518
O	      4.29179      4.17676      2.04101         0.033967      0.073257      0.005294
O	      4.11660      2.03000      4.15480        -0.215106     -0.110579     -0.234739
O	      6.54138      4.22431      4.16180         0.125532      0.049142     -0.016969
O	      6.32194      2.11819      6.37651        -0.347577      0.178491      0.322027
O	      8.53723      4.31515      6.10319         0.126305      0.010788     -0.218184
O	      2.17320      4.11155      4.17611        -0.060659      0.019283     -0.017003
O	      4.33641      6.13364      4.12851         0.069048     -0.017178      0.083663
O	      4.26120      4.02739      6.27537         0.289833      0.625885      0.050795
O	      6.39095      6.16724      6.13303         0.137455      0.092631     -0.133113
O	      6.41340      4.05539      8.53519         0.022983     -0.048475     -0.063635
O	      8.61015      6.17856      8.49449         0.174551      0.057785      0.498004
O	      2.20971      6.15569      6.06771         0.010849      0.004935     -0.124368
O	      4.25509      8.14479      6.16834         0.015835     -0.100673      0.048650
O	      4.29494      6.17883      8.48974        -0.058954      0.003113     -0.118349
O	      6.35121      8.25660      8.33603        -0.049876      0.027831      0.099030
O	      6.42239      6.19214     10.45190         0.294178     -0.029308      0.009951
O	      8.48445      8.24886     10.48622        -0.073422      0.098971      0.035069
