# total energy = -230.82245409 eV
 
CRYSTAL
PRIMVEC
0.001943 6.232993 6.310053 
6.219553 -0.005277 6.317346 
4.151424 4.165302 -0.008656 
PRIMCOORD
36 1
Li	      8.39182      8.36185     12.51169        -0.044733     -0.035178     -0.001883
Li	      8.32388      4.13177      4.34037         0.042042      0.010944      0.048894
Li	      6.17670      2.11847      8.42203        -0.007409      0.017014      0.028330
Li	      4.17447      2.16082      6.28389        -0.000047      0.012795      0.027230
Li	      6.13248      4.13279      6.31606        -0.018759     -0.011616      0.046002
Li	      4.09591      8.29052      4.35278        -0.004270     -0.042000      0.007614
Li	      2.08529      4.15595      6.22981         0.020528      0.008470     -0.008866
Li	      4.14481      6.20119      6.22704         0.004390     -0.083261      0.037460
Li	      4.18823      4.09450      8.35622         0.033922     -0.019651     -0.058057
Sc	      8.33740      4.12813      8.33714        -0.112156      0.048454      0.024496
Ti	      2.16029      6.20393      8.29141         0.032103      0.076643     -0.275183
Ti	      6.32139      2.07903      4.35041         0.259598     -0.169296      0.352242
Ti	      6.19934      6.17067      8.25102         0.087364     -0.405261     -0.100151
Cr	      6.21817      6.23435      4.31106        -0.037252      0.018164      0.044988
Cu	     10.31373     10.32226     12.55844         0.077633      0.208789      0.088709
Ni	      4.16117      8.31958      8.36782        -0.010538     -0.037290      0.051171
Ni	      4.15953      4.16784      4.29307        -0.017837      0.021541     -0.059344
Ni	      2.11572      6.22221      4.24305        -0.024852     -0.044149     -0.004950
O	      4.13363      8.41517      6.37171         0.023882     -0.115272     -0.113747
O	      2.07521      1.98596      2.27765        -0.076705     -0.088446     -0.021418
O	      4.24419      4.16842      2.33381         0.076594      0.074470     -0.131066
O	      4.13131      2.15528      4.18482         0.038694     -0.127737      0.033466
O	      6.26937      4.13166      4.13891         0.116225     -0.021451     -0.032408
O	      6.21210      1.99739      6.19390         0.039057      0.125089     -0.339589
O	      8.35564      4.13460      6.35804        -0.051117     -0.031074     -0.138253
O	      2.08020      4.09039      4.19441        -0.177741     -0.067362      0.014919
O	      4.19824      6.15059      4.24428         0.075499      0.162448     -0.012203
O	      4.15660      4.15872      6.14308        -0.053696      0.014988      0.414802
O	      6.21536      6.26329      6.37111         0.008267      0.000219      0.136291
O	      6.22693      4.29733      8.38406        -0.007055      0.329892     -0.078309
O	      8.16113      6.21520      8.45525        -0.127998     -0.012805     -0.104081
O	      1.98876      6.25739      6.43771         0.082985     -0.010213      0.254823
O	      4.10804      6.24404      8.36648        -0.059005     -0.057629     -0.054837
O	      6.21979      8.40611      8.46552         0.134266      0.034692      0.033511
O	      6.19637      6.39374     10.28675        -0.092415      0.077595     -0.125516
O	      8.18513      8.25825     10.51830        -0.229461      0.137483      0.014913
