# total energy = -230.94405146 eV
 
CRYSTAL
PRIMVEC
0.030898 6.384068 6.386928 
6.232676 0.068580 6.350194 
4.208483 4.285588 -0.008244 
PRIMCOORD
36 1
Li	      6.18023      2.27723      4.34697         0.055082      0.017397     -0.046109
Li	      4.22521      6.43467      2.15586         0.057323     -0.012885      0.065900
Li	      6.17551      6.38859      4.26019        -0.014402     -0.033983     -0.011570
Li	      4.34484      4.21444      4.27192        -0.046983     -0.072420      0.028386
Li	      4.28436      2.25232      6.28637        -0.028751      0.020732     -0.075160
Li	      6.10836      4.20771      6.31156        -0.072628     -0.019007     -0.050147
Li	      8.44862      6.55186     10.55317        -0.005958     -0.008251     -0.084201
Li	      4.19545      6.40431      6.25199        -0.058254     -0.070093     -0.022912
Li	      8.40889      8.53269      8.47161        -0.042135     -0.022621     -0.071550
Sc	      8.31572      4.37511      4.30683        -0.085451     -0.026069      0.077942
Ti	      8.36934      4.37610      8.34146         0.172907     -0.063859     -0.329096
Ti	      2.20599      4.25115      6.24633         0.611122     -0.011323      0.081150
Ti	      6.30169      6.40588      8.40691         0.000663      0.071401     -0.050272
Cr	      4.17226      2.18917      2.17757        -0.038952      0.084304      0.236772
Cu	      6.30008      0.14340      6.34719        -0.028911      0.031422      0.054444
Cu	      2.14077      8.46749      6.35707         0.077726      0.107053     -0.004237
Cu	      6.24838      4.28909      2.18056        -0.003159     -0.039489      0.024507
Cu	      4.19177      8.47579      4.24730         0.155547      0.087511     -0.144679
O	      6.40387      2.08126      6.31073        -0.055767      0.068669     -0.002465
O	      2.14515      2.31645      2.06257         0.006418      0.198101      0.069906
O	      4.03724      4.23632      2.32284        -0.153537     -0.031113      0.099331
O	      4.20010      2.09804      4.16731         0.014595      0.059576      0.019210
O	      6.29314      4.29608      4.11833         0.052937     -0.011950      0.196743
O	      8.43544      4.50635      6.43675         0.064066      0.122635      0.136796
O	      1.92767      4.25707      4.33280        -0.008444      0.034280     -0.026592
O	      4.18929      6.63910      4.24802        -0.056899     -0.107827      0.040808
O	      4.04429      4.28804      6.30960        -0.514476     -0.035692     -0.047257
O	      6.24664      6.60242      6.47683        -0.088125      0.046332     -0.013030
O	      6.37658      4.44664      8.27610         0.055879      0.141018     -0.110466
O	      8.25787      6.33088      8.49942        -0.117039      0.023133     -0.004024
O	      2.05959      6.19382      6.62226         0.065141     -0.139182     -0.016412
O	      4.19789      8.70159      6.57282         0.025512     -0.046727      0.059527
O	      4.26912      6.50988      8.53624         0.144528      0.013090     -0.026743
O	      6.26363      8.40895      8.42134        -0.033709     -0.297179      0.058888
O	      6.24381      6.21672     10.41359         0.035969      0.003796     -0.136394
O	      8.53918      8.58187     10.68515        -0.141833     -0.080781      0.023005
