# total energy = -238.17846424 eV
 
CRYSTAL
PRIMVEC
0.004452 6.444002 6.328805 
6.050243 0.000546 6.332441 
4.049649 4.313913 -0.015072 
PRIMCOORD
36 1
Li	      6.04338      6.48826     12.60459         0.033352      0.016282      0.004739
Li	      6.04139      4.33641      2.15171        -0.030839     -0.028516     -0.030326
Li	      6.02906      2.14351      4.22335        -0.019600     -0.021670      0.041609
Li	      6.04586      2.28733      8.49220        -0.020580      0.078946      0.006179
Li	      2.00775      2.14876      4.12496        -0.019057     -0.028800      0.024485
Li	      6.04188      4.29156      6.41044        -0.006488     -0.018527     -0.011807
Li	      6.10919      4.33333     10.38049        -0.004014     -0.015517      0.020101
Li	      2.00980      4.33205      6.26608        -0.032219      0.033691     -0.033025
Li	      6.07023      6.32112      8.48070        -0.020091     -0.058628     -0.005525
Sc	      7.95340      2.15591      6.40458        -0.095636     -0.042504     -0.022229
Ti	      4.18938      8.67927      8.48200         0.448606      0.119063     -0.014580
Ti	      8.04714     10.69874     10.48663        -0.128432      0.111060     -0.066531
Ti	      4.17009      6.41895      6.24599         0.198385      0.111042     -0.180251
Cr	      8.02221      6.45729     10.51663        -0.007547      0.073832     -0.102015
Fe	      8.08544      6.46554      6.41886        -0.154437     -0.005903     -0.110615
Co	      4.05783      4.30048      8.43924        -0.011601      0.036794     -0.028886
Cu	      4.12506      4.32328      4.20331         0.095451      0.033790     -0.033617
Ni	      8.01203      4.30263      8.47400         0.040438      0.102867     -0.106694
O	      2.08942      2.20981      2.09601         0.048756     -0.131107      0.016691
O	      4.04570      4.13161      2.17480         0.059184     -0.168484     -0.089493
O	      4.03381      1.92510      4.16173        -0.018100     -0.248583     -0.014267
O	      6.14282      4.26940      4.17421         0.203854      0.001471      0.067108
O	      5.93084      2.11663      6.35666         0.261166      0.001036     -0.056841
O	      8.07026      4.32427      6.20750         0.004520     -0.065371     -0.032088
O	      2.14895      4.49920      4.16829        -0.114637     -0.028905      0.129443
O	      4.00925      6.59925      4.37763         0.018545      0.080200      0.187351
O	      4.04145      4.35838      6.27464        -0.059247      0.053904      0.234679
O	      6.05342      6.46978      6.27713        -0.240011     -0.003555     -0.006604
O	      6.01545      4.28044      8.41521        -0.144422      0.043833      0.028673
O	      8.05378      6.44161      8.42231         0.050406     -0.155514      0.130611
O	      2.08557      6.50944      6.21039         0.075689     -0.006442      0.008382
O	      4.04883      8.41398      6.52190         0.010793      0.015736      0.069388
O	      4.03747      6.49374      8.45030        -0.004496      0.237818      0.044009
O	      6.04245      8.63625      8.43307        -0.402694     -0.072167      0.005211
O	      5.99625      6.38120     10.54790        -0.011453      0.004972      0.024016
O	      8.04762      8.63856     10.57565        -0.003543     -0.056145     -0.097282
