# total energy = -236.76849494 eV
 
CRYSTAL
PRIMVEC
-0.003473 6.192632 6.505077 
6.391217 0.041064 6.460017 
4.277468 4.115627 0.010789 
PRIMCOORD
36 1
Li	      6.29881      6.25339     12.67995         0.074544     -0.088539     -0.080653
Li	      2.13343      6.19324      8.64972         0.010216     -0.018730     -0.053372
Li	      4.42087      6.15278     10.88833        -0.056690     -0.071223     -0.043249
Li	      6.51721      8.16520     10.73266         0.098177      0.034696     -0.147433
Li	      8.48109      4.17078      8.48555        -0.024865     -0.058256      0.026613
Li	      6.55994      4.11427      6.47855         0.002982      0.000384      0.009025
Li	      6.27046      4.29224     10.79336        -0.087121     -0.034961      0.001478
Li	      8.32910      6.24452     10.83458        -0.013969     -0.000978      0.043989
Li	      8.46405      8.33023      8.87097        -0.054035      0.039039      0.080657
Sc	      4.26137      8.34150      8.55851         0.174916     -0.030780     -0.142157
Ti	      6.20312      2.22028      8.55630         0.050461      0.157220     -0.079862
Ti	      2.15132      2.10323      4.33300        -0.065588      0.168553     -0.230276
Ti	      4.36427      4.11222      4.42995         0.047309      0.034543     -0.086731
Cr	      6.43591      6.17432      8.69198        -0.131003      0.119157      0.096593
Fe	      4.17837      6.17412      6.55619        -0.069483      0.179385      0.018041
Co	      8.47840      8.32746     12.65288         0.142170     -0.232829      0.407011
Cu	      8.64092      6.06567      6.51523         0.031746     -0.108635     -0.005950
Cu	      6.39338      8.29984      6.53637        -0.134518      0.246250      0.033527
O	      2.09878      2.09151      2.40770        -0.063160      0.020833      0.338180
O	      4.27507      4.22689      2.40708        -0.009479      0.085256      0.111622
O	      4.15465      2.13882      4.21921        -0.063408      0.156259      0.178967
O	      6.29738      4.23448      4.37412        -0.260815      0.165049     -0.000602
O	      6.54270      2.04863      6.72105        -0.267603     -0.038643      0.211986
O	      8.57057      4.04918      6.49583         0.023137      0.704841     -0.110079
O	      2.28880      4.04882      4.47878         0.226727     -0.318696     -0.291317
O	      4.39220      6.14972      4.31113         0.160427     -0.194847      0.063125
O	      4.39446      4.19737      6.32439         0.085519     -0.330673     -0.153243
O	      6.26927      6.27598      6.44413         0.179129     -0.535844     -0.003986
O	      6.39357      4.09907      8.67261        -0.016288     -0.318863     -0.050284
O	      8.57971      6.23304      8.70681         0.206191     -0.045852     -0.138756
O	      2.21626      6.15988      6.51847         0.005174      0.375415      0.075935
O	      4.07775      8.20160      6.52142        -0.132503     -0.083209      0.016003
O	      4.38765      6.22612      8.54444         0.048854      0.052205     -0.010876
O	      6.35093      8.20639      8.56397        -0.111705     -0.106623      0.393329
O	      6.38159      6.22360     10.62295         0.012146     -0.037798     -0.047363
O	      8.46746      8.26904     10.86682        -0.017591      0.116896     -0.429892
