# total energy = -238.67030211 eV
 
CRYSTAL
PRIMVEC
0.012087 6.369325 6.333713 
6.300631 0.009246 6.336520 
4.193646 4.241364 0.012994 
PRIMCOORD
36 1
Li	      2.15800      8.40959      6.28798         0.007417     -0.033434      0.012251
Li	      6.33758     10.56263      8.45784         0.009544     -0.034467     -0.009939
Li	      4.25929      8.44983      8.43160         0.000913     -0.041124      0.009918
Li	      6.33405      8.49353     10.51464         0.006881      0.010602     -0.035849
Li	      4.21587      4.25710      4.22932         0.017100      0.004177      0.013590
Li	      4.12663      8.46083      4.29331        -0.036088     -0.045911      0.085463
Li	      8.44335      6.48329     10.61334         0.046505      0.119149      0.028208
Li	      4.12223      6.41969      6.35838        -0.014884      0.051182      0.042354
Li	      8.35632      8.52709      8.48916         0.000268      0.027684     -0.037424
Sc	      6.23327      6.30328      4.27744        -0.098555     -0.010619     -0.006419
Ti	      4.27238      6.21533     10.42508         0.044983     -0.273260     -0.185233
Ti	      2.13775      4.24463      2.21278         0.165221     -0.089495      0.096355
Ti	      6.24817      8.63876      6.49204        -0.057646      0.189323      0.262185
Cr	     10.47536      6.39687      8.48455         0.002741     -0.033936     -0.012209
Fe	      4.25805      2.17139      6.26002        -0.045432      0.054710      0.089071
Co	      6.23987      4.23501      6.31601         0.392996     -0.035993      0.106537
Ni	      6.34125      6.36540     12.62124         0.023386      0.013695      0.062045
Ni	      6.29070      6.40130      8.49430         0.133407     -0.001682     -0.098119
O	      2.02603      2.26624      2.12483        -0.032596      0.128697      0.103966
O	      4.07144      4.33814      2.07531        -0.120328      0.076850      0.029312
O	      4.16962      2.01674      4.30703        -0.043066     -0.083972     -0.098892
O	      6.40690      4.25160      4.26155        -0.114618     -0.028183      0.313372
O	      6.22946      2.09826      6.44771         0.127685      0.239404     -0.023576
O	      8.39865      4.31797      6.39124        -0.317381     -0.005005     -0.063888
O	      2.12371      4.21366      4.11079        -0.055541     -0.077590     -0.168223
O	      4.20895      6.35294      4.12942         0.085516      0.057484     -0.056822
O	      4.13127      4.16643      6.31233        -0.002624     -0.009507     -0.003130
O	      6.35324      6.44905      6.37610        -0.025620     -0.080703     -0.122949
O	      6.42071      4.22023      8.38575        -0.189653     -0.015815     -0.446505
O	      8.41514      6.27254      8.41176         0.057658     -0.081579     -0.018791
O	      2.11085      6.26017      6.34514         0.108998     -0.213665      0.016235
O	      4.36978      8.50878      6.33283         0.240455     -0.073287      0.011318
O	      4.24562      6.36693      8.55617        -0.177301     -0.043103      0.422099
O	      6.30899      8.47938      8.34282        -0.015117      0.062678     -0.288725
O	      6.20170      6.39339     10.56010        -0.165742     -0.032644     -0.001310
O	      8.39909      8.62082     10.58879         0.040517      0.309338     -0.026277
