# total energy = -239.43559261 eV
 
CRYSTAL
PRIMVEC
-0.008096 6.367378 6.254834 
6.379772 -0.030039 6.276568 
4.236187 4.242497 -0.002970 
PRIMCOORD
36 1
Li	      6.48958      6.51844     12.41730         0.039427     -0.013945      0.022803
Li	      8.32478      8.35689     12.46629         0.052685     -0.006395      0.045616
Li	      6.44714      2.03461      4.36121        -0.028666     -0.037609     -0.090078
Li	      4.43447      2.18213      6.30957        -0.029291      0.013220      0.067732
Li	      6.28747      4.05354      6.29710         0.002483      0.020843      0.079375
Li	     10.53373      8.51394     10.42703        -0.019107      0.024369     -0.001681
Li	      8.39386      6.45518     10.46734        -0.090106      0.055651     -0.068764
Li	      2.15768      4.30951      6.24808        -0.006428     -0.008803     -0.036879
Li	      8.55114      8.33465      8.35407         0.050951     -0.070422     -0.004977
Sc	      8.40284      4.28518      8.25594        -0.007354      0.195165     -0.081226
Ti	      4.34090      8.49042      8.19856         0.055256     -0.105854     -0.357633
Ti	      8.59085     10.40498     10.57863         0.218738     -0.230111      0.199113
Ti	      6.38892      6.37747      4.33095         0.005398      0.148255      0.282852
Cr	      4.28794      4.19341      4.21798        -0.038899      0.033717      0.023880
Fe	      4.09572      6.28024      6.25224         0.287092      0.022494      0.093382
Co	      6.30917      2.17619      8.23228         0.058250     -0.260670      0.097776
Co	      6.39759      6.36693      8.32989        -0.085518     -0.256102     -0.001930
Ni	      2.10859      6.37327      8.29768         0.041005      0.013842      0.018142
O	      2.21223      2.13232      2.18796        -0.103301      0.006624      0.002167
O	      4.25324      4.11270      2.16129         0.009387     -0.240554     -0.043775
O	      4.13588      2.12045      4.14861        -0.055445      0.043161     -0.044816
O	      6.37162      4.35752      4.11965         0.016720      0.015787      0.085568
O	      6.38150      2.08105      6.31146        -0.091772      0.159308      0.516109
O	      8.48651      4.22385      6.17413         0.032436     -0.034471     -0.331464
O	      2.24957      4.08368      4.13583         0.053134     -0.162079      0.032100
O	      4.37625      6.23720      4.16784        -0.029726      0.061547     -0.258086
O	      4.24721      4.32141      6.18012         0.010237     -0.055564     -0.042022
O	      6.27216      6.37868      6.17910         0.037057      0.009842     -0.209434
O	      6.41088      4.26122      8.37254        -0.042811      0.617228      0.012071
O	      8.47958      6.31417      8.40202         0.314776     -0.029580     -0.064415
O	      2.19969      6.35316      6.27051        -0.270168     -0.007812     -0.189235
O	      4.24148      8.35256      6.36814         0.007800      0.054440      0.315825
O	      4.20736      6.47967      8.40106        -0.099654      0.154007     -0.008607
O	      6.20440      8.49522      8.37875        -0.124005     -0.442948     -0.039274
O	      6.20591      6.34062     10.42374        -0.139104      0.031773     -0.070640
O	      8.46873      8.60799     10.42771        -0.031475      0.281648      0.050426
