# total energy = -243.53895666 eV
 
CRYSTAL
PRIMVEC
0.012927 6.274517 6.453215 
6.251886 0.016202 6.450010 
4.171084 4.184040 0.007579 
PRIMCOORD
36 1
Li	      2.11994      8.34081      6.41593        -0.060730      0.000460     -0.068637
Li	      2.15122      6.26437      8.61188         0.037664      0.004241      0.045536
Li	      6.29538      8.37696     10.64044         0.037139     -0.039087     -0.081109
Li	      8.29518      4.26236      8.63411        -0.026295     -0.010752      0.083567
Li	      8.28723      6.20842      6.52626         0.029237      0.028778      0.046469
Li	      6.29637      4.32712      6.48643         0.024505     -0.056385      0.011861
Li	      6.21554      4.23458     10.73850         0.013212      0.016289     -0.036305
Li	      4.22094      6.28853      6.54492        -0.034100      0.005365      0.042755
Li	      6.24064      6.23545      8.51988         0.007427     -0.020235      0.024915
Sc	      6.24810      8.30314      6.53337         0.120716      0.013470     -0.066246
Ti	     10.33233      4.17874      6.49893        -0.206760      0.204745     -0.070424
Ti	      6.34477      2.22150      8.53764         0.042991      0.428545     -0.285761
Ti	      4.27608      4.09928      4.40199         0.170982     -0.013011      0.358773
Cr	      8.33796     10.44681     10.75018        -0.022216     -0.058971     -0.097433
Fe	      8.29487      6.40672     10.72472         0.007245     -0.173786     -0.063104
Co	      4.16854      8.33070      8.60003        -0.073938     -0.041198     -0.055069
Co	      6.23366      6.29021      4.36472        -0.132646      0.049737     -0.042189
Co	      4.16317      4.23485      8.60676         0.054261      0.016431      0.062743
O	      2.00684      2.10971      2.24055        -0.208572     -0.011711      0.482474
O	      4.17531      4.19944      2.08123        -0.009888      0.122503     -0.014753
O	      4.19705      2.13914      4.27682        -0.038260      0.040847     -0.014477
O	      6.22901      4.17582      4.30591        -0.189563      0.131604      0.022149
O	      6.24210      1.97434      6.64575         0.051109     -0.082705      0.366174
O	      8.43269      4.20059      6.33156         0.268522     -0.018665     -0.018441
O	      2.25125      4.23638      4.31305         0.011901     -0.085315      0.044807
O	      4.11804      6.13014      4.16584         0.110162      0.036265     -0.023177
O	      4.20106      4.19698      6.26925        -0.045124     -0.016781     -0.313305
O	      6.23441      6.30393      6.39906         0.045846     -0.111920     -0.547214
O	      6.25082      4.09159      8.58580         0.054774     -0.419824      0.000425
O	      8.43584      6.32194      8.73219         0.077313     -0.056891     -0.026370
O	      1.96838      6.26412      6.29076        -0.072875      0.011751      0.112032
O	      4.16852      8.47298      6.47343         0.016673      0.016111      0.083146
O	      4.17297      6.28582      8.73935         0.044529     -0.026571      0.045662
O	      6.28292      8.36682      8.55300        -0.022477     -0.033253     -0.103297
O	      6.22806      6.29731     10.89824        -0.072043      0.010419      0.150920
O	      8.34414      8.40154     10.76621        -0.010721      0.139503     -0.057096
