# total energy = -93.01251346 eV
 
CRYSTAL
PRIMVEC
-2.030507 4.163161 -2.029802 
1.998667 4.130203 1.996992 
2.016197 0.017078 -6.041913 
PRIMCOORD
16 1
Li	      0.02824      4.09875     -4.02819        -0.078138      0.005242     -0.250804
Li	      1.92711      4.09621     -5.92304         0.083777     -0.022668     -0.118387
Li	      0.03919      2.05821     -2.04030        -0.039003     -0.158869      0.050584
Li	      1.93801      2.05357     -3.93513         0.066968     -0.131191     -0.064539
Mn	     -1.99808      4.10094     -2.00087        -1.044523     -0.074128      0.177735
Mn	     -0.02186      6.13564     -2.01060        -0.565101      1.074680      0.230999
Ni	      1.97431      6.13452     -4.00587         0.482510      0.494446     -0.612792
Ni	      1.96076      4.08672     -1.99042         0.418715     -0.400688      0.404117
O	     -0.01547      4.05965     -6.08916         0.088333      0.148560     -0.654127
O	      1.84207      6.07992     -2.01380         0.731582      0.587004      0.518315
O	      2.09285      4.14129     -3.98249         0.397129     -0.542864     -0.373938
O	      1.95433      3.91368      0.05050         0.220564     -0.021434      0.636074
O	     -0.01828      6.19399     -3.87362        -0.445701     -0.061696     -0.811449
O	     -0.00547      6.29034     -0.09561        -0.036030      0.248404      0.587277
O	     -0.08185      4.25564     -1.98750        -0.186595     -0.760256      0.009607
O	      0.06217      1.88014     -0.02475        -0.094487     -0.384540      0.271328
