# total energy = -235.46643276 eV
 
CRYSTAL
PRIMVEC
0.000523 6.332478 6.296781 
6.378877 -0.017078 6.314752 
4.233489 4.214095 0.007957 
PRIMCOORD
36 1
Li	      6.35171      4.21704      2.21500        -0.036767     -0.000815      0.079804
Li	      4.15903      2.15994      2.23301        -0.032866      0.011364      0.003825
Li	      6.24279      2.16871      4.24545        -0.005636     -0.008048      0.013336
Li	      2.29225      2.08630      4.22963        -0.036081     -0.021058     -0.013202
Li	      4.27712      4.03615      4.29938         0.012352     -0.001308      0.021881
Li	      4.24535      2.19602      6.10902         0.016146      0.027254      0.066710
Li	      4.25101      8.42297      4.28018         0.030532     -0.046765      0.038791
Li	      2.15959      4.16409      6.24658        -0.010213      0.033271     -0.013526
Li	      4.28156      6.32952      6.24831         0.050008      0.017261     -0.059197
Sc	      0.11905      2.11831      2.08013         0.053851     -0.036893      0.023498
Ti	      4.20573     10.42280      6.31590         0.022533     -0.226938      0.177788
Ti	      2.19628      6.25492      4.27789         0.308187     -0.320767      0.110907
Ti	      6.32477      6.42941      8.27529        -0.117320      0.280859     -0.544262
Cr	      8.43707      4.26599      4.24717        -0.048623      0.033018     -0.023049
Fe	      4.19200      4.25954      8.34123         0.039571     -0.010737      0.067033
Cu	      6.28550      4.21442      6.19740         0.016029      0.054523     -0.006979
Ni	      2.13121      8.41459      6.27503         0.013362     -0.047652      0.011950
Ni	      2.13782      4.19314      2.12060        -0.028452      0.024007      0.015485
O	      2.10129      2.16232      2.06241        -0.065151     -0.166491      0.103263
O	      4.21404      4.24634      1.97927         0.085905      0.010151     -0.144382
O	      4.24205      1.99243      4.21245         0.032865     -0.069424     -0.022872
O	      6.46580      4.21082      4.28881         0.036414     -0.011537     -0.114084
O	      6.42453      1.91985      6.34186        -0.119543     -0.209394      0.038151
O	      8.57640      4.16339      6.29303         0.158975      0.076935     -0.084097
O	      2.10124      4.38565      4.15330         0.009152      0.305088      0.096245
O	      4.06172      6.35585      4.18297        -0.326007      0.015808     -0.056163
O	      4.27760      4.21677      6.43530        -0.066969      0.006003     -0.159256
O	      6.34516      6.39392      6.46428         0.031788      0.128738      0.479767
O	      6.37691      4.26559      8.29249        -0.096717      0.058271      0.107896
O	      8.40134      6.33502      8.53278        -0.051974      0.091460      0.023899
O	      2.00034      6.33554      6.19899        -0.059491     -0.115699     -0.217912
O	      4.20228      8.55755      6.30642         0.083037      0.261991      0.008755
O	      4.37365      6.26222      8.51072         0.105644      0.061314     -0.014744
O	      6.45070      8.30343      8.41940        -0.054418     -0.190246      0.012358
O	      6.36787      6.29619     10.55417         0.048392     -0.033478     -0.005655
O	      8.50532      8.38583     10.43992         0.001485      0.019933     -0.021958
