# total energy = -235.22277950 eV
 
CRYSTAL
PRIMVEC
0.008819 6.183852 6.644965 
6.143292 0.018704 6.635786 
4.108085 4.128725 -0.000747 
PRIMCOORD
36 1
Li	      2.10443      8.22222      6.63464        -0.006674      0.021362     -0.019586
Li	      4.13567      8.23961      8.87256        -0.003377      0.001522      0.081355
Li	      4.05963      6.19176      2.42177         0.011829     -0.017282      0.107074
Li	      6.10596      6.17928      4.46702         0.075642     -0.061011     -0.052624
Li	      4.05786      4.27139      4.63867         0.043148     -0.004477      0.001251
Li	      4.07654      2.19897      6.59988         0.017889     -0.099306     -0.094561
Li	      2.18692      4.13846      6.53301        -0.119505      0.052106     -0.074990
Li	      4.08988      6.13935      6.51802        -0.000253      0.092913      0.007141
Li	      4.12813      4.09479      8.64696         0.023505     -0.018863     -0.022982
Sc	      4.10394     10.27073      6.67480        -0.079701      0.002235     -0.033749
Ti	      6.06137      2.16425      4.44917        -0.319491      0.288960      0.019960
Ti	      2.09137      4.01208      2.27549         0.104989     -0.250382     -0.085332
Ti	      6.11213      6.24196      8.64269        -0.178926      0.046197     -0.101962
Cr	      4.10586      8.20034      4.47280        -0.066595      0.069552     -0.018094
Fe	      2.18332      6.27497      8.74195        -0.122911     -0.086615      0.285161
Cu	      8.18245     10.30076     11.05126        -0.097452      0.061593      0.038567
Cu	      6.08574      4.11075      6.67897         0.232721      0.040887     -0.020386
Ni	      2.11791      6.18495      4.40046        -0.128118      0.069291      0.090606
O	      2.04602      2.09340      2.24325        -0.001256      0.254846      0.013725
O	      4.03969      4.13861      2.13211        -0.080315      0.001238     -0.022371
O	      4.20041      1.94450      4.42432         0.286416      0.274469     -0.021248
O	      6.17025      4.05356      4.14785        -0.195418     -0.145122     -0.155610
O	      6.15611      2.11352      6.36790        -0.035134      0.015397     -0.052432
O	      8.12233      4.14445      6.93913        -0.068292     -0.000471      0.310636
O	      2.01844      4.12981      4.29267         0.033282     -0.085419     -0.008434
O	      4.07465      6.26741      4.42826         0.152617     -0.031778      0.045339
O	      4.19682      4.11882      6.61407        -0.087257     -0.043024      0.038791
O	      6.18306      6.15561      6.82677         0.045016      0.010554      0.117052
O	      6.20090      4.23475      9.05503        -0.006451      0.020322      0.179761
O	      8.07597      6.10236      8.95994        -0.024038      0.015646     -0.059115
O	      2.03833      6.18706      6.81914         0.017290     -0.031235     -0.210869
O	      4.12984      8.29557      6.44851         0.027647     -0.022939     -0.011667
O	      4.16277      6.20375      8.80888         0.263002     -0.016846     -0.240790
O	      6.17538      8.16930      8.99854         0.006370     -0.100230     -0.030419
O	      6.16107      6.23817     11.09972         0.216324     -0.057993     -0.002829
O	      8.18418      8.31174     11.09605         0.063477     -0.266094      0.003633
