# total energy = -236.04121864 eV
 
CRYSTAL
PRIMVEC
0.057853 6.312310 6.327383 
6.287401 0.035353 6.349927 
4.195022 4.226721 0.020161 
PRIMCOORD
36 1
Li	     10.37927      4.27255      6.41594        -0.020139      0.052267      0.018467
Li	      4.18457      2.13322      2.12910         0.010291     -0.045628      0.043838
Li	      8.36385      4.26587      4.34581        -0.004305      0.043590      0.071891
Li	      8.40706      4.42056      8.37372         0.021323      0.039168      0.007717
Li	      8.36700      6.24719      6.49764        -0.018667     -0.076175     -0.064559
Li	      6.39852      4.25493      6.42854         0.011867     -0.010379      0.056926
Li	      8.45432      6.33988     10.44551         0.011302      0.017777     -0.045300
Li	      6.33712      8.42037      6.35845         0.011628     -0.012759     -0.028364
Li	      6.49871      6.31399      8.39708        -0.003351      0.016464     -0.019823
Sc	      6.22441      2.08090      4.31669        -0.038587     -0.089445      0.058511
Ti	      6.24234     10.50649      8.38647        -0.156458     -0.152248     -0.077127
Ti	      6.35859      4.39036     10.50019         0.091184      0.258821     -0.142073
Ti	      4.33008      6.27032      6.42022         0.137795     -0.213847      0.130833
Cr	      2.15789      2.09946      4.21988         0.032230     -0.041261      0.009013
Fe	      8.38365      2.32334      6.40041        -0.025201     -0.193112      0.024646
Ni	     10.42094      6.35989      8.41933        -0.015578      0.016978      0.052311
Ni	      4.14359      4.22232      4.24119        -0.041161     -0.007186      0.034407
Ni	      8.41886      8.38035      8.43724        -0.015851      0.083322     -0.029007
O	      2.09183      1.99918      2.15841         0.036552     -0.050049      0.064142
O	      4.29513      4.24036      2.15454         0.202959     -0.070862     -0.128933
O	      4.16593      2.16452      4.24557        -0.036235     -0.175463     -0.034121
O	      6.29008      4.26537      4.11864         0.105151      0.050645     -0.036215
O	      6.40144      2.13600      6.33227        -0.113750      0.012246     -0.158312
O	      8.40188      4.17682      6.40339        -0.007443      0.211902     -0.012939
O	      2.02702      4.11677      4.22534        -0.169480      0.071433     -0.035790
O	      4.30841      6.34405      4.28609        -0.032182      0.109612      0.172994
O	      4.19507      4.38727      6.29237         0.009327      0.218425      0.054671
O	      6.22532      6.35145      6.26805        -0.193732     -0.032743      0.019940
O	      6.26144      4.19284      8.61573         0.185979      0.140275      0.138008
O	      8.44054      6.40101      8.45672         0.011242     -0.123267      0.023226
O	      2.23003      6.39048      6.46746         0.004557     -0.043243      0.123409
O	      4.16797      8.31978      6.20945         0.150751     -0.040746      0.002554
O	      4.17891      6.31439      8.31358        -0.028662      0.110070     -0.172743
O	      6.35577      8.57800      8.51838        -0.162209      0.136810     -0.079307
O	      6.35280      6.25923     10.56806        -0.004825     -0.242093     -0.025251
O	      8.49871      8.44767     10.63247         0.053678      0.030701     -0.017639
