# total energy = -240.15977771 eV
 
CRYSTAL
PRIMVEC
-0.005748 6.337133 6.336847 
6.365598 -0.000853 6.331964 
4.240801 4.218592 0.002244 
PRIMCOORD
36 1
Li	      6.38434      4.25069      2.23688        -0.027291      0.032256      0.010569
Li	      4.27411      2.03182      2.30567         0.042557     -0.031756     -0.136615
Li	      4.19546      0.22683      4.14146        -0.003540     -0.051846     -0.028383
Li	      6.11584      2.16177      4.18149         0.034776      0.008276     -0.040832
Li	      2.34832      2.04165      4.18441        -0.027326     -0.014918      0.003974
Li	      4.32334      3.98912      4.20745         0.027000      0.041599     -0.020765
Li	      4.22830      2.12889      6.09038        -0.013704      0.003963      0.036888
Li	      2.12941      6.36122      4.28090         0.008958     -0.030457     -0.026288
Li	      4.19824      6.37652      6.32966         0.012626     -0.016917     -0.024727
Sc	      6.35094      4.22513      6.12326        -0.047298      0.042930     -0.110803
Ti	      4.26699      6.29810      2.24562         0.043579     -0.073536      0.458231
Ti	      2.18680      4.19296      2.17554         0.171689     -0.034765      0.117072
Ti	      8.36330      8.57296      8.52204        -0.147705      0.159111      0.237215
Cr	      6.37257      6.33924      8.48365         0.044127      0.012881     -0.004911
Fe	      6.40151      6.35578     12.50932        -0.064995      0.080756      0.097527
Fe	      2.13984      4.21063      6.20888         0.078332     -0.037632      0.061230
Co	      4.22107      8.43243      4.29770        -0.035591     -0.047163     -0.013645
Cu	      2.17930      8.31446      6.17989        -0.007395     -0.032976     -0.104930
O	      1.94117      2.27578      2.18357        -0.153170      0.107009      0.006438
O	      4.10247      4.36240      2.10884        -0.138156      0.127330     -0.001495
O	      4.23630      2.11377      4.18863        -0.002669     -0.019532     -0.047122
O	      6.36222      4.21285      4.22293         0.010073     -0.011437     -0.044620
O	      6.33763      2.08053      6.49832         0.045879      0.022588      0.034570
O	      8.50520      4.22990      6.55109         0.012441     -0.060409      0.101782
O	      2.08039      4.23365      4.16578         0.003649     -0.009038     -0.151389
O	      4.18335      6.38779      4.08314         0.005881      0.009068     -0.336048
O	      4.22397      4.22115      6.47922         0.060279     -0.001731      0.093197
O	      6.35282      6.36804      6.46939        -0.007501     -0.055227      0.073998
O	      6.37394      4.23125      8.40576         0.012243     -0.021274      0.001076
O	      8.47551      6.28788      8.49687         0.006199     -0.069214      0.002414
O	      2.02320      6.22212      6.37118         0.032594      0.078101      0.036324
O	      4.33709      8.55314      6.39020        -0.078539     -0.030363      0.024136
O	      4.35428      6.21771      8.44848        -0.043811     -0.221214     -0.014425
O	      6.47914      8.33662      8.40149         0.178205      0.053943      0.032860
O	      6.36317      6.29852     10.54795        -0.006016      0.042510     -0.072689
O	      8.55433      8.39968     10.36005        -0.026381      0.049086     -0.249815
