# total energy = -244.50970913 eV
 
CRYSTAL
PRIMVEC
0.054938 6.337660 6.320682 
6.391958 0.041902 6.333339 
4.269318 4.241720 0.019455 
PRIMCOORD
36 1
Li	      0.15432      6.29869      6.32915         0.013882      0.027598      0.002351
Li	      2.20323      6.31079      8.37836        -0.005364      0.038616      0.016167
Li	      2.17460      4.23777      2.14937        -0.008704      0.012870     -0.016944
Li	      6.38255      6.35431      4.21051         0.021341     -0.028733      0.001299
Li	      4.23768      4.31738      4.28228        -0.025623     -0.027426     -0.004327
Li	      2.23104      6.27002      4.31093         0.034538      0.009494     -0.021740
Li	      2.26235      4.42864      6.29908         0.077108     -0.035089     -0.008351
Li	      4.19204      6.22911      6.34145        -0.002506      0.029117      0.016307
Li	      4.29988      4.29026      8.38085         0.038022     -0.032351      0.007407
Sc	      2.16538      8.32240      6.34498         0.003089     -0.079153      0.029974
Ti	      4.23312      2.26749      2.11207        -0.188566      0.301280      0.198776
Ti	      0.22347      4.13735      4.24655         0.285731     -0.211221     -0.065916
Ti	      6.52537      6.42801      8.38706         0.346278      0.006155     -0.291061
Cr	      4.29507      6.37047     10.51673         0.033018      0.112817      0.101074
Fe	      6.48451      8.48226     10.53502         0.014025     -0.054514     -0.050621
Fe	      6.30398      4.27391      6.26984         0.029791      0.032522      0.073259
Co	      4.18373      6.25197      2.17632        -0.122916     -0.082025      0.075922
Co	      4.24902      2.17388      6.32190        -0.073372     -0.044611      0.099767
O	      2.31312      2.12366      2.09911         0.260064      0.015766     -0.076115
O	      4.27950      4.13580      2.15762         0.006236     -0.297183     -0.032161
O	      4.33505      2.07169      4.11488        -0.127199     -0.042571     -0.242118
O	      6.50344      4.25596      4.27855         0.062885      0.132563      0.038569
O	      6.39005      2.20371      6.42657        -0.213789      0.067735      0.126368
O	      8.41838      4.30247      6.24775        -0.014822      0.448891      0.003580
O	      2.02075      4.22800      4.24820        -0.394230      0.010209      0.019294
O	      4.30248      6.50328      4.16605         0.012155      0.239550     -0.047690
O	      4.37038      4.21148      6.31006        -0.104210     -0.559355     -0.023577
O	      6.39550      6.27426      6.47596         0.241033      0.027444      0.166459
O	      6.41928      4.35407      8.53529        -0.004989      0.071994      0.010486
O	      8.43733      6.39888      8.48181        -0.225895     -0.006514      0.025814
O	      2.16575      6.38234      6.31469         0.033292      0.099079      0.022774
O	      4.27818      8.49241      6.32263        -0.062050      0.025572      0.021154
O	      4.43910      6.48137      8.50218         0.069972      0.055645      0.010364
O	      6.34980      8.37955      8.40762        -0.114257     -0.162234     -0.182065
O	      6.34731      6.28907     10.46547        -0.058861     -0.167686     -0.111839
O	      8.58583      8.59564     10.56835         0.164892      0.065753      0.107362
