# total energy = -239.17210371 eV
 
CRYSTAL
PRIMVEC
0.057275 6.284418 6.355825 
6.379372 0.011168 6.402162 
4.254886 4.223188 0.005210 
PRIMCOORD
36 1
Li	      4.23365      4.24156      0.05698        -0.035079     -0.028984      0.039528
Li	      6.35168      4.22415      2.22463         0.022283     -0.042371     -0.016381
Li	      4.30681      2.08283      2.25239         0.052640     -0.061885     -0.023191
Li	      6.18078      2.17535      4.32147        -0.050261     -0.054838      0.021488
Li	      4.41099      4.11337      4.20125         0.057003      0.006688     -0.018356
Li	      4.27834      2.07262      6.29587        -0.069194     -0.049667      0.089606
Li	      6.44986      4.21208      6.24417         0.050328      0.052585      0.009368
Li	      2.17275      6.31574      4.25547        -0.012423     -0.006788     -0.045214
Li	      6.34799      6.34364      8.49054        -0.033273      0.016764     -0.039775
Sc	      8.51311      8.46533      8.53680         0.084180      0.113780      0.043649
Ti	      8.39718      2.14907      6.46996         0.049541      0.600045      0.113694
Ti	      6.44708      4.34905     10.65813        -0.061270      0.487495      0.025362
Ti	      2.21369      4.24537      6.44000         0.096891     -0.032829      0.040389
Cr	      2.21350      2.06031      4.24790        -0.251626      0.011038      0.021687
Fe	      4.22740      6.17830      2.17089        -0.117032      0.191241      0.099317
Fe	      2.17562      4.24316      2.13256         0.144401     -0.021311     -0.242305
Cu	      4.21085      0.08439      4.23226         0.210405      0.166584     -0.023766
Ni	      4.29510      6.29811      6.35779         0.030979     -0.026439     -0.004743
O	      2.07734      2.08039      2.07272         0.054217     -0.298896     -0.022010
O	      4.22873      4.27913      2.16978        -0.018314     -0.167586      0.092804
O	      4.18324      2.08698      4.27138         0.149947     -0.033560     -0.037496
O	      6.49427      4.29927      4.27382        -0.199531      0.095754     -0.033991
O	      6.55230      2.09171      6.45418         0.082218     -0.000657     -0.028177
O	      8.52679      4.02956      6.45352        -0.138570     -0.610295     -0.000624
O	      2.03623      4.17306      4.34057        -0.088259     -0.024839      0.080293
O	      4.40166      6.40611      4.21310         0.084866      0.009426     -0.061839
O	      4.11604      4.20861      6.40158        -0.098826     -0.115123     -0.095314
O	      6.36517      6.45962      6.24996         0.185109      0.169337     -0.031556
O	      6.39014      4.13832      8.66903         0.114762     -0.054157      0.066761
O	      8.64131      6.35181      8.52857        -0.032522      0.217978      0.027537
O	      2.19901      6.26058      6.30797        -0.135650     -0.010779      0.012918
O	      4.30465      8.39409      6.23744        -0.027138      0.109944      0.029235
O	      4.34043      6.24757      8.37503        -0.028685     -0.143446     -0.017775
O	      6.43740      8.39707      8.31583        -0.075819      0.042996     -0.168635
O	      6.36561      6.20322     10.60666         0.008104     -0.407254      0.039126
O	      8.68228      8.40040     10.73512        -0.004404     -0.099951      0.058389
