# total energy = -239.90522463 eV
 
CRYSTAL
PRIMVEC
0.008688 6.376039 6.318377 
6.221172 0.021002 6.306095 
4.157019 4.252075 0.004400 
PRIMCOORD
36 1
Li	      4.11231      4.21630      0.11730        -0.024108      0.022042      0.020575
Li	      6.15662      4.29418      2.14694        -0.006332      0.041260      0.011957
Li	      4.07638      2.27372      2.16833        -0.015311     -0.023015     -0.020191
Li	      2.17122      4.16031      2.05040        -0.055754     -0.006830     -0.000021
Li	      4.17036      4.10479      4.09476        -0.031750     -0.059029      0.012122
Li	      4.15106      2.08998      6.24082         0.025589     -0.015952      0.002611
Li	      8.27065      6.39473     10.49448         0.062513     -0.002548      0.009760
Li	      4.18373      6.38884      6.39648        -0.017258      0.032330      0.044427
Li	      8.29107      8.55148      8.43849         0.014805      0.002154     -0.011909
Sc	      4.10627      6.22671      2.07379         0.008572     -0.014430     -0.003005
Ti	      4.12728      8.45499      4.30236         0.058139     -0.265874      0.072987
Ti	      2.24013      4.46990      6.32260         0.250506      0.363769     -0.057270
Ti	      6.28046      6.40546      8.35470         0.121702      0.039648     -0.108954
Cr	      6.18743      4.26585      6.30336        -0.073547     -0.035851      0.018830
Fe	      2.14677      8.46914      6.40239        -0.021584     -0.108454      0.021664
Fe	      4.12178      0.10982      4.16069        -0.017363     -0.086171      0.058045
Ni	      6.21547      2.15304      4.20734         0.037755     -0.033480     -0.082184
Ni	      2.11374      2.14108      4.16552        -0.024672     -0.000993      0.071191
O	      2.02712      2.08645      2.14852        -0.015381      0.068116     -0.035631
O	      4.11769      4.28908      2.10231         0.041545     -0.031959      0.018060
O	      4.17327      2.05735      4.20574         0.003903      0.049960     -0.013638
O	      6.25220      4.25930      4.29842        -0.037589     -0.040225     -0.015705
O	      6.18024      2.25609      6.27523        -0.004389     -0.019246      0.120297
O	      8.18961      4.21115      6.21273         0.032066      0.021862      0.015066
O	      2.00047      4.21841      4.36778        -0.083490      0.178011      0.106861
O	      4.16831      6.58176      4.17131        -0.151677      0.268733      0.080750
O	      4.11229      4.30053      6.28500        -0.239932      0.015108      0.023960
O	      6.21889      6.34172      6.38454         0.020319      0.057539      0.157381
O	      6.22809      4.33664      8.41977        -0.005553      0.060240      0.006630
O	      8.18580      6.38610      8.45426        -0.146951      0.026427     -0.023448
O	      2.13940      6.29688      6.33691        -0.006332     -0.335318     -0.011884
O	      4.28902      8.55225      6.19111         0.060094     -0.023095     -0.113390
O	      4.31679      6.36303      8.51307         0.080933      0.003034     -0.131620
O	      6.25936      8.38919      8.30296        -0.012691     -0.052398     -0.108200
O	      6.22063      6.34089     10.42452         0.008542     -0.093527     -0.030974
O	      8.38071      8.57891     10.53801         0.164681     -0.001839     -0.105148
