# total energy = -244.07677902 eV
 
CRYSTAL
PRIMVEC
0.006085 6.405355 6.384164 
6.325088 0.024765 6.365950 
4.236855 4.278263 -0.003836 
PRIMCOORD
36 1
Li	      6.38141      8.51147     10.57243         0.029243     -0.097262     -0.108107
Li	      8.34038      4.35203      8.59330        -0.037966      0.038379     -0.039712
Li	      6.32664      4.32757      6.47718         0.058063      0.072625      0.095050
Li	      0.12738      4.25121      4.16387        -0.093407      0.132313      0.029954
Li	      2.09361      6.30717      4.24217        -0.120095      0.007424      0.064982
Li	      6.33241      8.49870      6.33445        -0.121543     -0.044715      0.115214
Li	      4.28259      6.39771      6.29572        -0.033269      0.151973      0.063664
Li	      4.26727      4.27034      8.47052        -0.052959      0.124900      0.112050
Li	      6.34524      6.37865      8.51304        -0.088895      0.006307      0.054032
Sc	      6.35118     10.54826      8.47467         0.242543     -0.276670     -0.216366
Ti	      2.17311      8.53754      6.33120         0.749189     -0.107671     -0.099748
Ti	      4.33313      6.38165     10.59990         0.546526     -0.172976     -0.544520
Ti	      4.16234      2.31253      6.46620        -0.248856     -0.381839      0.367387
Cr	      2.10192      2.18498      4.26250         0.278124     -0.202737     -0.131428
Fe	     10.54676      4.31751      6.36465         0.066712     -0.185615     -0.163520
Fe	      6.28228      2.36351      8.54449         0.083462     -0.154093     -0.209282
Fe	      4.16242      4.32482      4.26020         0.171537     -0.007705     -0.253196
Co	      4.29512      8.53366      8.48012         0.020514     -0.092405      0.015824
O	      2.08469      2.13251      2.08998        -0.347856      0.057899      0.162975
O	      4.25976      4.31172      2.06825        -0.223713      0.448532      0.999768
O	      4.17597      2.02708      4.35388        -0.124507      0.620587      0.413639
O	      6.37936      4.40407      4.17946        -0.425906      0.118290      0.175135
O	      6.31859      2.17433      6.44336        -0.215568      0.001432      0.033745
O	      8.39409      4.22831      6.23918        -0.127565      0.090982      0.114327
O	      2.16520      4.17613      4.27558         0.436175      0.141833     -0.017474
O	      4.34230      6.42847      4.17090        -0.162001     -0.557723      0.292553
O	      4.23543      4.14204      6.39209         0.017386      0.163404     -0.699615
O	      6.49159      6.41621      6.27229         0.199651      0.036930     -0.120039
O	      6.30589      4.22438      8.51774         0.041190      0.114997      0.020829
O	      8.50234      6.39550      8.34327        -0.057394      0.067986     -0.355946
O	      2.14798      6.60506      6.37490        -0.006869      0.070394     -0.049870
O	      4.06528      8.54707      6.41451        -0.353186      0.089779     -0.446961
O	      4.21249      6.41353      8.67062        -0.066080     -0.323762      0.294389
O	      6.30393      8.57146      8.49999         0.304248      0.044429     -0.034326
O	      6.19999      6.43500     10.67107        -0.291228     -0.096721     -0.128710
O	      8.39135      8.71201     10.78341        -0.045700      0.100502      0.193303
