# total energy = -93.20692754 eV
 
CRYSTAL
PRIMVEC
-2.040814 4.184294 -2.040106 
2.008812 4.151168 2.007130 
2.026431 0.017165 -6.072582 
PRIMCOORD
16 1
Li	      0.02853      4.14047     -4.06919        -0.049590      0.011058     -0.165546
Li	      1.94672      4.13790     -5.98331         0.047139     -0.011250     -0.070213
Li	      0.03959      2.07915     -2.06106        -0.023023     -0.106469      0.034857
Li	      1.95773      2.07447     -3.97518         0.043198     -0.085090     -0.041547
Mn	     -2.01842      4.14268     -2.02124        -0.675702     -0.043762      0.119288
Mn	     -0.02208      6.19809     -2.03107        -0.360115      0.689628      0.149459
Ni	      1.99440      6.19696     -4.04664         0.318028      0.311873     -0.403602
Ni	      1.98072      4.12831     -2.01067         0.249912     -0.247977      0.275046
O	     -0.01563      4.10097     -6.15114         0.105101      0.137377     -0.458132
O	      1.86082      6.14180     -2.03430         0.442685      0.412363      0.365304
O	      2.11415      4.18344     -4.02302         0.282003     -0.383758     -0.277761
O	      1.97422      3.95351      0.05101         0.144112     -0.019713      0.451511
O	     -0.01846      6.25703     -3.91304        -0.317150     -0.085116     -0.493941
O	     -0.00553      6.35436     -0.09658        -0.021249      0.163371      0.334332
O	     -0.08268      4.29896     -2.00773        -0.171724     -0.480837      0.006146
O	      0.06281      1.89928     -0.02500        -0.013628     -0.261698      0.174799
