# total energy = -246.50233777 eV
 
CRYSTAL
PRIMVEC
0.016089 6.454627 6.289034 
6.294820 0.018334 6.286407 
4.211189 4.315487 -0.002249 
PRIMCOORD
36 1
Li	      2.07166      2.17658      0.08509        -0.003811     -0.032865     -0.047470
Li	      2.09345      0.10542      2.11416         0.013533      0.028047     -0.026031
Li	      8.39060      4.32002      4.19613        -0.051226     -0.030821      0.044895
Li	      6.46764      2.35705      8.34282         0.018049      0.086557      0.013582
Li	      8.20191      4.21397      8.42095         0.025773     -0.001045      0.006139
Li	      2.07864      2.17519      4.09792        -0.039873      0.024966      0.034428
Li	      6.37583      4.27662      6.39721         0.046464     -0.043647     -0.031905
Li	      6.37163      4.33578     10.33193         0.049621     -0.025369      0.035689
Li	      6.31081      6.31222      8.47172         0.010777     -0.060893      0.039122
Sc	      4.22199      4.36143      4.09883         0.001410      0.112434      0.038636
Ti	      6.38780      8.66465     10.40622         0.269202      0.261788      0.065203
Ti	      4.29976      6.50584      6.33634        -0.154267      0.080798     -0.030315
Ti	      8.39045      6.34491      6.43609         0.251805     -0.877045      0.165665
Cr	      8.40657      6.49367     10.44122         0.077540      0.003489      0.032019
Fe	      4.24936     10.73068      6.32352        -0.189791      0.280793      0.034886
Fe	      4.01547      2.18155      2.10256         0.017800     -0.271955      0.115758
Fe	      6.28790      8.58901      6.32910         0.080878      0.102824     -0.028321
Fe	      4.38101      4.35374      8.35674        -0.184813     -0.023365      0.112124
O	      2.14829      2.14896      2.12079        -0.099139     -0.045839      0.008427
O	      4.24820      4.17335      2.09108         0.053761     -0.032263     -0.210499
O	      4.25935      2.20019      4.21454         0.012345      0.003827      0.007392
O	      6.31017      4.11633      4.17652        -0.047921     -0.206805     -0.044090
O	      6.10788      2.17989      6.18550        -0.045186      0.075488     -0.130962
O	      8.43001      4.49988      6.27796        -0.360654      0.583163     -0.067849
O	      2.13358      4.45572      4.25421         0.025130      0.037099     -0.163195
O	      4.16520      6.44322      4.30068        -0.008239     -0.000008      0.089330
O	      4.21646      4.38910      6.24321         0.079792      0.093648     -0.112964
O	      6.30739      6.45079      6.23211        -0.063191     -0.005545      0.020254
O	      6.28320      4.31228      8.40265         0.175997      0.062857     -0.005804
O	      8.39514      6.48253      8.31846        -0.031453     -0.033034     -0.160462
O	      2.20473      6.45466      6.17856         0.439936      0.050850      0.007229
O	      4.17566      8.47910      6.33983        -0.018203     -0.214664      0.000963
O	      4.20278      6.54591      8.23996         0.030161      0.098112     -0.129823
O	      6.28505      8.60498      8.44697        -0.025894     -0.055079      0.186602
O	      6.40257      6.61274     10.49342        -0.126013      0.006236      0.116204
O	      8.29280      8.55007     10.51097        -0.230298     -0.032734      0.015148
