# total energy = -230.02710435 eV
 
CRYSTAL
PRIMVEC
-0.007398 6.364512 6.214319 
6.303598 -0.003156 6.210014 
4.201011 4.238896 -0.000743 
PRIMCOORD
36 1
Li	      4.20943      4.20162      0.23492         0.006041     -0.008835     -0.099670
Li	      2.14149      2.09376      0.15037        -0.022941      0.055113      0.051424
Li	      1.96705      0.03812      1.97566        -0.040524      0.025320      0.005851
Li	      4.15427      2.29106      1.97550         0.024249      0.025313      0.003197
Li	     10.38767      6.22685      8.23619        -0.018167     -0.013307     -0.011370
Li	      8.57672      4.29293      8.15122        -0.013796      0.031468     -0.035580
Li	      8.45095      6.35845      6.29631        -0.002788     -0.030129     -0.014777
Li	      2.21755      6.33339      4.10225         0.061301     -0.023226     -0.012039
Li	      4.12658      6.37070      6.24766        -0.010364      0.033247      0.032692
Sc	      6.38489      6.31397      8.17648         0.006303     -0.046417      0.027646
Ti	      8.39672      4.28437      4.18591         0.098011      0.092632      0.062862
Ti	      6.32236      2.09499      4.22913         0.102053     -0.158906      0.403657
Ti	      1.95750      2.18628      4.01372        -0.269000      0.106325     -0.588977
Cr	      2.08180      4.39459      6.22419        -0.117676      0.135154      0.017267
Ni	      4.16394      4.25903      4.04126         0.024472     -0.028857      0.056448
Ni	      6.28272      4.22035      6.26787         0.051426     -0.008497      0.056303
Ni	      4.17072      8.43802      4.15414        -0.040378      0.067863     -0.015958
Ni	      4.21095      4.19429      8.24244        -0.050124      0.021097      0.049277
O	      2.14258      2.11507      2.22229        -0.057707      0.008548      0.475534
O	      4.20148      4.24882      2.11232         0.021073      0.011064     -0.110853
O	      4.27070      2.03198      4.12882         0.003748     -0.159778      0.025194
O	      6.34249      4.25067      4.18044         0.139231     -0.005996     -0.078681
O	      6.29268      2.17868      6.04834         0.003774     -0.101567     -0.322354
O	      8.35201      4.19480      6.07277         0.104836      0.023465     -0.215515
O	      2.08619      4.13931      4.23252        -0.034217     -0.139083      0.049315
O	      4.30108      6.36566      4.14976         0.327179     -0.010338     -0.038563
O	      4.06624      4.21862      6.15031        -0.097833     -0.022915     -0.026852
O	      6.32615      6.37739      6.12527        -0.024101      0.077561     -0.066684
O	      6.25034      4.26089      8.31317         0.100754      0.029894      0.031392
O	      8.36732      6.39967      8.31522        -0.076829     -0.187988     -0.005089
O	      2.12346      6.18793      6.18158        -0.026868     -0.150018     -0.026396
O	      4.39825      8.44398      6.15331         0.151505      0.013151      0.138997
O	      4.22978      6.27253      8.45912         0.050742      0.137357      0.127579
O	      6.31682      8.47407      8.29362        -0.102474     -0.003470     -0.023848
O	      6.20086      6.50171     10.36312        -0.098704      0.171117     -0.001707
O	      8.29716      8.57908     10.36410        -0.172206      0.033641      0.080277
