# total energy = -239.29946925 eV
 
CRYSTAL
PRIMVEC
-0.001424 6.325108 6.386713 
6.342206 -0.035482 6.420629 
4.193539 4.204790 0.011064 
PRIMCOORD
36 1
Li	      4.26057     10.48914      6.49122         0.044775     -0.019215      0.012355
Li	      6.22377      4.25511      2.15725         0.019354     -0.026498      0.027858
Li	      4.25203      6.24326      2.30135        -0.005667      0.060094      0.025530
Li	      2.14838      4.15818      2.31255         0.013155     -0.003014     -0.145771
Li	      2.06511      2.26393      4.12787         0.079266     -0.045245      0.005477
Li	      0.22032      4.22808      4.20054        -0.072288      0.101938     -0.042481
Li	      2.10586      6.14794      4.25105        -0.047906      0.119812     -0.042577
Li	      2.08081      4.26304      6.19665        -0.014348      0.005710     -0.057771
Li	      6.30488      6.22747      8.57881        -0.029364     -0.036925      0.017178
Sc	      2.10064      2.15448      0.13781         0.023418      0.109121     -0.183568
Ti	      6.28508      8.28014     10.56789         0.054767     -0.460018     -0.117222
Ti	      8.32319      6.19844      6.56663        -0.107943     -0.243816      0.122669
Ti	      4.11734      6.38558      6.29078        -0.156506      0.160788      0.084897
Mn	      6.28094      4.17132      6.43583         0.036017      0.025108      0.036200
Cr	      4.23059      4.23562      8.53117        -0.020469      0.098333      0.099741
Co	      4.18054      2.13358      2.14291        -0.007791      0.111172     -0.036402
Cu	      4.20334      6.30450     10.61030         0.031491     -0.101997      0.063804
Cu	      4.07794      4.27721      4.10007         0.406173     -0.060769      0.439743
O	      2.12657      2.06857      2.09172         0.092874      0.023633      0.124693
O	      4.23897      4.10946      2.17746         0.080575     -0.250830     -0.140782
O	      4.31647      1.97279      4.41801        -0.064869      0.451043      0.011089
O	      6.31330      4.05640      4.47037        -0.360257      0.130796     -0.222956
O	      6.29126      2.13858      6.33473        -0.047726      0.027774      0.025346
O	      8.47840      4.29614      6.55522         0.060409      0.229401      0.209030
O	      2.17082      4.23627      4.23112        -0.155010     -0.015958      0.012649
O	      4.27521      6.34648      4.45572        -0.024990     -0.130604     -0.117117
O	      4.14600      4.15326      6.49003        -0.070083     -0.009187      0.054481
O	      6.41086      6.20098      6.39649         0.051590     -0.024333      0.007847
O	      6.19561      4.18040      8.36394         0.016914     -0.014551      0.068026
O	      8.42550      6.41319      8.40678        -0.037006     -0.019697     -0.110524
O	      2.23851      6.39890      6.35702         0.200793     -0.006464     -0.066306
O	      4.19296      8.30528      6.37774         0.053906     -0.203187     -0.065785
O	      4.27024      6.25710      8.33005        -0.048136      0.032197     -0.222943
O	      6.35066      8.42804      8.69652        -0.070535     -0.022900      0.107299
O	      6.28351      6.41265     10.69528         0.287248      0.297876     -0.016034
O	      8.30819      8.51201     10.61495        -0.211830     -0.289587      0.032328
