# total energy = -237.67683505 eV
 
CRYSTAL
PRIMVEC
0.025087 6.223077 6.419051 
6.184615 0.025724 6.418201 
4.154879 4.179184 -0.014060 
PRIMCOORD
36 1
Li	      4.19300     10.32299      6.37815        -0.011886      0.015263     -0.032828
Li	      4.16781      8.30456      8.42135         0.044454     -0.027856     -0.019240
Li	      6.23684      8.32425     10.66987         0.016060      0.006380     -0.006023
Li	      0.04448      2.11494      2.15311        -0.024204      0.047829     -0.033407
Li	      2.02518      2.11873      4.24463        -0.030538      0.025145      0.010282
Li	      4.22674      8.30356      4.33241         0.002001     -0.016321      0.040196
Li	      4.14615      6.39994      6.38250         0.060635     -0.069268      0.004849
Li	      8.28309      8.35992      8.59893         0.028583     -0.013804      0.007744
Li	      6.22505      6.26971      8.54887        -0.032515      0.008425     -0.009699
Sc	      6.13849      4.19781      6.45915        -0.071522      0.033703      0.083322
Ti	      6.10933      4.12041      2.11053         0.029757     -0.502234      0.036236
Ti	      4.29450      6.32776     10.55133         0.072166      0.217299     -0.353810
Ti	      8.36574      6.32730     10.63242         0.252857     -0.016731     -0.174154
Mn	      8.29117      6.27597      6.42743        -0.003687      0.023461     -0.002599
Cr	      2.09215      4.10566      2.16222         0.021280      0.010211      0.001869
Cu	      6.13583      8.29334      6.41745         0.031665     -0.008724      0.097844
Ni	      2.19285      8.27345      6.42971        -0.181655      0.053828     -0.031106
Ni	      4.14264      4.12627      4.25926         0.080782     -0.080382      0.033784
O	      2.07819      2.07245      2.05642         0.002969     -0.025664      0.057727
O	      4.18707      4.18040      2.20748         0.105118      0.008528     -0.165704
O	      4.13653      1.97323      4.27554         0.045315     -0.322499     -0.019930
O	      6.27259      4.21625      4.19476         0.149216     -0.017089     -0.021267
O	      6.06260      2.13603      6.41567         0.059412     -0.011915     -0.025134
O	      8.27451      4.23210      6.42700         0.014130      0.031058     -0.072366
O	      2.10307      4.24332      4.13739        -0.167925      0.046518     -0.165657
O	      4.02205      6.19982      4.32445        -0.372349      0.095533      0.010798
O	      4.06877      4.06165      6.35365         0.080553      0.085285      0.072118
O	      6.32957      6.28319      6.41418         0.001750     -0.135218      0.001163
O	      6.30628      4.17384      8.47166        -0.021561      0.034193     -0.030795
O	      8.26821      6.20898      8.72042         0.049022      0.001332      0.221738
O	      2.06111      6.22965      6.46771         0.051636      0.010712     -0.043364
O	      4.20800      8.30704      6.41316        -0.066662      0.100249     -0.013307
O	      4.08289      6.21970      8.70220        -0.022944      0.054548      0.377321
O	      6.25609      8.52433      8.60119        -0.073234      0.361290      0.140566
O	      6.15754      6.24877     10.66936        -0.120897     -0.002319      0.058493
O	      8.28958      8.28989     10.76649         0.002220     -0.020766     -0.035660
