# total energy = -237.58452605 eV
 
CRYSTAL
PRIMVEC
-0.007472 6.276323 6.544634 
6.107053 0.010830 6.525702 
4.084898 4.185481 -0.005924 
PRIMCOORD
36 1
Li	      8.23613      8.37744     12.89561         0.022617     -0.013023     -0.046263
Li	      4.07660      2.15267      2.19209        -0.058511      0.048646      0.032078
Li	      8.18630     10.42019     10.90011         0.009948      0.004589     -0.000500
Li	      6.06247      2.09943      4.40641        -0.013319     -0.041285      0.033173
Li	      4.01217      6.21636      2.20453         0.028693      0.041711      0.004553
Li	      8.24977      4.23230      8.61330         0.014772     -0.078137     -0.091670
Li	      4.08029      2.09270      6.47989         0.032168     -0.002249      0.005744
Li	      3.98116      8.35035      4.53383         0.071328      0.001159     -0.051668
Li	      4.06389      6.32916      6.48826        -0.071753     -0.005946     -0.016781
Sc	      2.04747      2.15614      4.41391        -0.023436      0.058446     -0.034015
Ti	      1.97231      0.14225      2.08340        -0.239320      0.352003     -0.253065
Ti	      6.23118      4.03850      6.48974         0.124997     -0.309937      0.025837
Ti	      6.11681      6.23867      8.83247         0.217421     -0.059964      0.086069
Mn	      2.02958      4.21189      6.54507        -0.071703      0.005048     -0.040819
Cr	      8.14781      8.33496      8.75130        -0.048174     -0.083571      0.054180
Cu	      4.08021      4.18897      4.34348         0.070939     -0.089803      0.004286
Cu	      2.08273      6.30852      4.35445        -0.058606      0.044432      0.078412
Ni	      6.06916      0.05995      6.48953        -0.047246      0.099098     -0.035172
O	      2.04951      1.96394      2.30782        -0.003486     -0.233271     -0.018763
O	      4.17731      4.19110      2.04228         0.257640      0.011262      0.066116
O	      4.05410      2.21517      4.36097         0.023212     -0.094312      0.000612
O	      6.09680      4.20885      4.45463         0.154684     -0.033903     -0.012857
O	      6.09683      2.18655      6.51538         0.056967      0.364561     -0.033665
O	      8.08182      4.14068      6.48698        -0.374881      0.027352     -0.016752
O	      2.07302      4.25968      4.52511        -0.134750     -0.036316      0.044619
O	      4.03205      6.19967      4.33234         0.068913      0.068547      0.072847
O	      4.00060      4.19086      6.73397         0.145140     -0.015008      0.141969
O	      6.04822      6.15733      6.56455         0.055899     -0.066132      0.036227
O	      6.07985      4.29163      8.53753        -0.009692     -0.013074      0.010997
O	      7.99586      6.30449      8.58321        -0.165386      0.101112     -0.068549
O	      2.06313      6.37325      6.77014         0.040194     -0.028831      0.369138
O	      4.22643      8.47389      6.49040         0.020248     -0.080064      0.067793
O	      4.04752      6.17614      8.81168         0.066481      0.005394     -0.047534
O	      6.11441      8.30426      8.62168         0.091635     -0.032758      0.055879
O	      6.15161      6.28359     10.71877        -0.169819     -0.024700     -0.217065
O	      8.17058      8.26678     10.74292        -0.083811      0.108926     -0.205393
