# total energy = -237.85923401 eV
 
CRYSTAL
PRIMVEC
-0.038010 6.545855 6.358121 
6.115420 0.009211 6.311121 
4.108509 4.364603 -0.026497 
PRIMCOORD
36 1
Li	      2.01257      2.19116      0.11888         0.012154      0.011820     -0.016285
Li	      4.09385      8.85443      8.33340         0.035395      0.009631     -0.115424
Li	      6.09951      2.21494      4.22766        -0.009697      0.041418      0.020174
Li	      6.10944      2.12752      8.31265        -0.007553     -0.031951     -0.017579
Li	      2.08082      4.35212      2.12654        -0.028100     -0.032462     -0.010048
Li	      4.00850      4.41230      4.09745         0.005043     -0.001229     -0.070676
Li	      1.99632      6.33156      4.23609        -0.021004     -0.117615      0.005331
Li	      1.99089      4.44042      6.31661        -0.027839      0.052897     -0.016017
Li	      6.11861      6.52891      8.42053         0.020925     -0.035739      0.020745
Sc	      1.99818      2.26180      4.08732        -0.121300      0.038037     -0.049476
Ti	      4.11990      6.51655     10.59904         0.255695      0.029722     -0.035010
Ti	      4.00634      6.62015      6.26662        -0.175581      0.290921     -0.395174
Ti	      8.15880      8.62571      8.47225        -0.100909     -0.233646     -0.001060
Mn	      8.16230      6.56865      6.31756        -0.056439      0.042803      0.020826
Cr	      2.01432      0.00977      2.08210        -0.027809     -0.012039     -0.114508
Cu	      0.02231      0.03262      0.02977        -0.088042      0.115688     -0.327655
Cu	      6.10953      4.33827      6.36627         0.144622     -0.026348     -0.065168
Cu	      0.03803      4.39342      4.23403         0.026266     -0.078027      0.116390
O	      2.02978      2.03984      2.09946         0.006078     -0.027044      0.011551
O	      4.15352      4.33383      1.92776        -0.101170      0.022135      0.216738
O	      4.05457      2.06548      4.37350         0.012131     -0.055672      0.041339
O	      6.25587      4.41542      4.04001         0.055356      0.007303     -0.040889
O	      5.95531      2.36928      6.31948         0.263068      0.113640      0.010399
O	      8.12317      4.30204      6.17948        -0.258996     -0.026781      0.189409
O	      1.99959      4.29534      4.18479         0.158603     -0.069982      0.015090
O	      4.04791      6.36688      4.41181        -0.005849     -0.138814      0.305487
O	      4.11529      4.51548      6.51078        -0.084086     -0.022161      0.202381
O	      6.13784      6.41400      6.29845         0.025476     -0.006565      0.036315
O	      6.00191      4.42023      8.59447        -0.049005      0.053551     -0.131433
O	      8.12131      6.71780      8.30219         0.006754      0.285120      0.020424
O	      2.09529      6.53678      6.39343         0.328089     -0.048385      0.066935
O	      4.12601      8.48550      6.27391        -0.000483     -0.433215      0.134008
O	      4.05966      6.50627      8.49628         0.016829     -0.049586      0.055716
O	      6.24578      8.87133      8.44432         0.143828      0.026313      0.028898
O	      6.00669      6.68896     10.71097        -0.198969      0.148799     -0.020610
O	      8.21273      8.91358     10.44947        -0.153478      0.157462     -0.091144
