# total energy = -237.83744548 eV
 
CRYSTAL
PRIMVEC
0.012495 6.418651 6.320365 
6.222282 0.041631 6.291017 
4.165741 4.277051 0.010322 
PRIMCOORD
36 1
Li	      4.24526     10.65066      6.35898         0.038204     -0.026064     -0.011299
Li	      6.26688     10.59008      8.41979        -0.024055      0.004095     -0.048231
Li	      4.29033      8.48667      8.38856        -0.028241     -0.055475     -0.037759
Li	      4.17242      6.42691     10.33844         0.018399     -0.023161     -0.061625
Li	      4.19449      4.30803      4.15855        -0.029603      0.002713     -0.023818
Li	      4.12166      2.23227      6.27607        -0.026862      0.016888      0.026353
Li	      6.22703      4.32286     10.49152         0.014731     -0.009061      0.003403
Li	      6.25535      8.60744      6.45726         0.005193      0.024073      0.026869
Li	      4.05586      4.45538      8.40964         0.002438      0.054617      0.014984
Sc	      2.21658      4.30435      2.10845        -0.013472      0.049681      0.072787
Ti	      2.22697      8.57913      6.27079         0.405455      0.045946     -0.130890
Ti	      2.21230      2.13409      4.19946         0.299427      0.130413      0.030143
Ti	      6.05313      4.26964      6.35337        -0.269922     -0.004110      0.114376
Mn	      2.12044      6.42625      4.24225        -0.103065     -0.024541     -0.034304
Cr	      6.18067      2.18911      4.15106        -0.052303     -0.016862      0.023179
Ni	      4.16169      6.38441      2.14220        -0.019952      0.081211     -0.065201
Ni	      4.14640      6.42226      6.38079        -0.003752      0.025077     -0.117090
Ni	      6.15895      6.53270      8.44774         0.196082     -0.065094     -0.070189
O	      2.05439      2.15266      2.13753         0.106246      0.022662      0.009515
O	      4.17404      4.37083      2.06592         0.004141     -0.135076      0.031172
O	      4.08231      2.12590      4.21064        -0.203376     -0.032964     -0.015306
O	      6.22049      4.33898      4.31936        -0.024338     -0.011696      0.010339
O	      6.23085      2.29281      6.25268        -0.004769      0.093312     -0.055012
O	      8.22745      4.13790      6.34762        -0.009690     -0.085066      0.049635
O	      2.06000      4.04592      4.20273         0.024158     -0.158357     -0.044152
O	      4.14307      6.41563      4.23154        -0.022797     -0.044576     -0.005204
O	      4.22108      4.28993      6.30950         0.251260     -0.077152      0.018087
O	      6.25709      6.29205      6.20016         0.081544     -0.096119     -0.124226
O	      6.24332      4.31962      8.27409        -0.007740     -0.031762     -0.077866
O	      8.31363      6.42627      8.57767        -0.051939     -0.051855      0.019946
O	      2.09455      6.54418      6.19051        -0.134477      0.081517      0.011459
O	      4.04975      8.55145      6.28833        -0.309010      0.122018      0.032254
O	      4.20045      6.43944      8.34750        -0.196465      0.009888      0.203194
O	      6.24038      8.56351      8.52764         0.036407      0.151075     -0.006290
O	      6.36711      6.59745     10.50975         0.036292      0.024598      0.145888
O	      8.22049      8.66074     10.65612         0.015848      0.009208      0.084882
