# total energy = -93.28687672 eV
 
CRYSTAL
PRIMVEC
-2.082042 4.268825 -2.081320 
2.049394 4.235030 2.047678 
2.067369 0.017512 -6.195261 
PRIMCOORD
16 1
Li	      0.02969      4.30946     -4.23526         0.041849     -0.004232      0.150290
Li	      2.02617      4.30678     -6.22751        -0.054227      0.024673      0.065735
Li	      0.04121      2.16401     -2.14518         0.045080      0.079050     -0.043849
Li	      2.03763      2.15914     -4.13741        -0.040513      0.061049      0.039275
Mn	     -0.01875      0.04293     -0.02241         0.628559      0.050687     -0.193048
Mn	     -0.02298      6.45105     -2.11396         0.275786     -0.609249     -0.083580
Ni	      2.07580      6.44987     -4.21179        -0.166564     -0.250192      0.256223
Ni	      2.06155      4.29680     -2.09273        -0.284781      0.182886     -0.160244
O	     -0.01627      4.26834     -6.40218         0.087981      0.100437      0.405238
O	      1.93676      6.39247     -2.11733        -0.426030     -0.147771     -0.105227
O	      2.20043      4.35418     -4.18721        -0.198070      0.121113      0.031773
O	      2.05480      4.11486      0.05310        -0.138943      0.028573     -0.212295
O	      2.06283      2.24357     -1.99142         0.056929     -0.133967      0.476008
O	     -0.00575      6.61370     -0.10052         0.013317     -0.148891     -0.463780
O	     -0.08606      4.47441     -2.08967        -0.039953      0.405532      0.017744
O	      0.06537      1.97679     -0.02602         0.199579      0.240300     -0.180264
