# total energy = -246.70712389 eV
 
CRYSTAL
PRIMVEC
-0.016537 6.432361 6.190038 
6.444488 -0.007986 6.181538 
4.292151 4.278405 -0.001089 
PRIMCOORD
36 1
Li	      8.55856      8.56881     12.20291        -0.094996      0.070059      0.088701
Li	      8.62220     10.58144     10.40005         0.001263     -0.048113      0.055627
Li	      6.54308      8.51954     10.39121         0.015281      0.022895      0.046964
Li	      6.34730      6.42603      4.14752         0.139014      0.004921     -0.188683
Li	      4.27734      4.37318      4.17126         0.027018     -0.200130     -0.189442
Li	      6.45687      4.25738      6.11340         0.107925     -0.196370     -0.057370
Li	     10.67274      8.57583     10.32624         0.002697      0.219295     -0.105002
Li	      8.57557      6.47436     10.35565        -0.223242      0.015262     -0.065234
Li	      6.50538      6.34904      8.34535         0.076645     -0.048773      0.213344
Sc	      8.67857      8.53225      8.38167        -0.078676      0.083221      0.201817
Ti	      6.38124      4.35537      2.16804        -0.203398      0.088292      1.152094
Ti	      4.30744      8.48793      8.33249        -0.134715      0.380055      0.683798
Ti	      4.23365      2.11860      6.08431         0.722003     -0.643957     -0.078700
Mn	      6.43492      6.44049     12.24591        -0.290006      0.358618      0.154148
Mn	      8.47751      4.32307      8.35252         0.094172     -0.203784     -0.013397
Mn	      2.14862      4.28439      6.05408        -0.064854     -0.001642      0.166277
Fe	      4.31500      6.41253      6.00755        -0.083568      0.015035     -0.644289
Co	      6.43262      2.20389      8.30185         0.254813     -0.411826     -0.184275
O	      2.30532      2.04579      2.04867        -0.084969      0.180520     -0.041992
O	      4.37513      4.17642      1.95345        -0.118233     -0.042480     -0.054975
O	      4.30936      2.14481      4.05706        -0.040607     -0.029060      0.111749
O	      6.42060      4.25911      3.97385        -0.049832      0.123409     -0.642585
O	      6.27015      2.07242      6.24498        -0.273014     -0.089514     -0.499745
O	      8.57297      4.45790      6.22553        -0.112242      0.236237     -0.122871
O	      2.13744      4.28277      4.15294         0.031343      0.036703     -0.121190
O	      4.32887      6.36936      4.07427        -0.110730      0.198685      1.833297
O	      4.29330      4.14051      6.18393         0.141383      0.923872     -0.129948
O	      6.56539      6.46692      6.15513        -0.797667     -0.125174     -0.012698
O	      6.40727      4.27129      8.24469        -0.213051      0.203867      0.029792
O	      8.53733      6.47116      8.14176         0.028622      0.117546     -0.086232
O	      2.14758      6.36418      6.28582         0.859351      0.221847     -0.375024
O	      4.29145      8.61186      6.34173        -0.069592     -0.829064     -0.468335
O	      4.17578      6.51802      8.21307         0.306105     -0.280229     -0.611983
O	      6.33256      8.68339      8.18332         0.089590     -0.188241     -0.023784
O	      6.42215      6.42818     10.43065         0.003599     -0.041891     -0.066024
O	      8.54704      8.58177     10.30002         0.142565     -0.120093      0.046169
