# total energy = -246.35804374 eV
 
CRYSTAL
PRIMVEC
0.025390 6.581820 6.286332 
6.199688 0.016814 6.294042 
4.148916 4.408522 -0.003933 
PRIMCOORD
36 1
Li	      8.31437     10.96386     10.46798         0.003645     -0.057097      0.002211
Li	      6.22737      8.77704     10.40764        -0.019568      0.001287      0.028409
Li	      2.07425      4.44451      2.16638        -0.012000     -0.005770     -0.048559
Li	      2.09393      2.17192      4.14631         0.048827     -0.025205      0.021814
Li	      6.18921      4.42348      6.15850         0.028458     -0.023450     -0.003745
Li	      6.34438      4.57981     10.46327         0.026310      0.028322      0.029266
Li	      8.19578      6.51027     10.46049         0.029872     -0.010222      0.026149
Li	      2.09016      4.43300      6.20305        -0.011949     -0.018026      0.005570
Li	      6.24305      6.61833      8.56506        -0.002304      0.014827      0.044708
Sc	      8.26899      8.85503     12.42400         0.026715      0.028026     -0.051100
Ti	      6.19796      2.35010      8.49876        -0.071942      0.272962     -0.088843
Ti	      4.10790      4.29799      4.18420        -0.167017     -0.250603      0.116197
Ti	      4.29696      6.60150      6.25591         0.511669      0.089390      0.157937
Mn	      6.26045      6.58627     12.51572        -0.055150      0.017135     -0.044482
Mn	      8.20663      6.48884      6.27375        -0.062519      0.014395     -0.008685
Mn	      8.22935      8.79808      8.48590        -0.001401      0.028080     -0.034317
Fe	      4.24061      8.75573      8.41368        -0.098137     -0.044380     -0.054948
Ni	      6.23299      4.41029      2.14031         0.088846     -0.020040     -0.058503
O	      2.00092      2.18154      2.07628        -0.154011      0.026361     -0.004977
O	      4.16932      4.49506      2.07845        -0.118393      0.051741      0.026046
O	      4.14341      2.36447      4.19508        -0.023860      0.286832      0.049962
O	      6.07407      4.43344      4.15090        -0.110137      0.016272      0.125176
O	      6.20881      2.24339      6.49244         0.028310     -0.034567      0.119068
O	      8.41460      4.35587      6.31441         0.040781     -0.074550     -0.000552
O	      2.23553      4.40743      4.14471         0.225958     -0.001424      0.039359
O	      4.15666      6.48009      4.18525         0.006131     -0.028135     -0.059864
O	      4.13119      4.56437      6.20228         0.017530      0.067783     -0.065642
O	      6.11846      6.56113      6.29170        -0.543478     -0.011363     -0.075577
O	      6.07994      4.23607      8.47262        -0.038990     -0.230314      0.036449
O	      8.38506      6.66294      8.40262         0.161001     -0.008941      0.045950
O	      2.06844      6.65765      6.31444         0.012681      0.012672     -0.101154
O	      4.16722      8.57890      6.27390        -0.010744     -0.114214     -0.081521
O	      4.16314      6.54899      8.23659         0.055872     -0.016483     -0.149034
O	      6.29697      8.83781      8.37179         0.227191     -0.043238      0.006811
O	      6.23288      6.58601     10.65137        -0.019112      0.036440      0.044365
O	      8.24663      8.86059     10.45287        -0.019085      0.025496      0.006058
