# total energy = -248.86732081 eV
 
CRYSTAL
PRIMVEC
0.032840 6.363717 6.421496 
6.438633 0.037974 6.416172 
4.313001 4.259168 0.004970 
PRIMCOORD
36 1
Li	      6.54947     10.59830      8.64890         0.034479      0.018896     -0.014279
Li	      6.57424      8.63013     10.64017         0.046605      0.052081     -0.000305
Li	      8.57330      4.32105      8.62285         0.020880     -0.026692      0.026725
Li	      4.31824      4.28794      4.44193        -0.021386      0.040318      0.071078
Li	      6.27362      4.31806      6.29763         0.021866      0.005432     -0.036854
Li	      2.17429      6.36449      4.28351         0.013712     -0.046254      0.062928
Li	      2.29348      4.30834      6.39646        -0.052418     -0.025898      0.029890
Li	      4.30539      6.11145      6.45853        -0.021526      0.007171      0.024716
Li	      4.24178      4.27631      8.49008        -0.035120     -0.014104      0.022728
Sc	      8.59955      2.22504      6.43078        -0.197750     -0.155651     -0.280377
Ti	      0.14987      6.36714      6.46840         0.366239      0.169756      0.022768
Ti	      6.45687      4.24519     10.62644        -0.071468     -0.065025      0.031600
Ti	      6.44422      6.46036      8.46509         0.037778      0.345221     -0.203158
Mn	      4.31462      2.16374      2.24395        -0.002449     -0.062735      0.087299
Mn	     10.67904      6.42721      8.58448         0.040619      0.005736     -0.020732
Mn	      6.44846      6.40013      4.31293         0.052096     -0.197210      0.005414
Mn	      4.29058      2.23131      6.38063        -0.065321     -0.085228     -0.047254
Cu	      4.30671      6.36719     10.64828        -0.047079     -0.112025     -0.095090
O	      2.16130      2.17822      2.03607        -0.035859      0.019314      0.356416
O	      4.30047      4.27338      1.92437        -0.029992     -0.011184     -0.121556
O	      4.13820      2.30296      4.39903        -0.165541      0.196136      0.012252
O	      6.58918      4.44713      4.27051        -0.165133      0.204964     -0.004576
O	      6.51777      2.04733      6.32214        -0.035507      0.028422     -0.051610
O	      8.77038      4.38237      6.26951        -0.074853      0.111014      0.083577
O	      1.97779      4.10078      4.32366         0.071305      0.085959     -0.004905
O	      4.43213      6.45059      4.32421         0.091462     -0.051222     -0.027383
O	      4.30837      4.12135      6.43636         0.006073      0.086958      0.013326
O	      6.39357      6.33947      6.61558        -0.061833     -0.039003      0.098290
O	      6.46759      4.35676      8.72473         0.017650      0.083148      0.061129
O	      8.49475      6.36166      8.42365        -0.030574     -0.025795      0.025754
O	      2.03696      6.41058      6.40356        -0.083837     -0.042623     -0.034444
O	      4.29341      8.67452      6.33921         0.060128     -0.034853     -0.093660
O	      4.47323      6.35795      8.63580        -0.007539     -0.020859     -0.011804
O	      6.47084      8.34737      8.65253         0.052194     -0.243787      0.068155
O	      6.46285      6.25637     10.70055         0.212393     -0.006940     -0.094804
O	      8.84000      8.39624     10.75516         0.059706     -0.193436      0.038744
