# total energy = -252.70691831 eV
 
CRYSTAL
PRIMVEC
-0.027622 6.541483 6.296672 
6.349333 0.006059 6.262387 
4.244213 4.349702 -0.007306 
PRIMCOORD
36 1
Li	      2.07413      2.20549      0.16191        -0.013304     -0.012681      0.026422
Li	      2.03837      0.14190      2.13850        -0.004231      0.008386     -0.009962
Li	      4.05277      2.31908      2.09446         0.057953      0.009260      0.009190
Li	      4.30660      6.50867      2.23425        -0.057796      0.048362     -0.047748
Li	      2.13263      4.24856      2.22976        -0.083364      0.007522     -0.010905
Li	      4.10742      4.49032      4.01592         0.033333     -0.000339      0.026431
Li	      0.08412      4.39039      4.13751        -0.013603      0.012494      0.008931
Li	      2.13460      6.33632      4.13368        -0.036352      0.028357     -0.011430
Li	      6.40181      6.47184      8.44351         0.009153     -0.038934     -0.014326
Sc	      4.13842      6.65874      6.24131         0.016233      0.027601      0.056959
Ti	      4.29020      4.37731      0.13259         0.029540      0.169041      0.196457
Ti	      4.26738      6.56246     10.30953         0.077972     -0.011612     -0.087310
Ti	      8.54806      8.54464      8.45549         0.135628     -0.264332      0.062295
Mn	      8.45252      6.49747      6.29838         0.010736     -0.006011      0.022283
Mn	      6.42693      4.25703      6.28864        -0.049522     -0.033029      0.013445
Mn	      2.10004      4.40222      6.29162         0.074826     -0.007476      0.078924
Mn	      2.03966      2.21170      4.10213         0.034946      0.006001     -0.027017
Fe	      6.30204      8.70041     10.33174        -0.057837      0.019991      0.046507
O	      2.06533      2.22939      2.23950         0.009053     -0.027522     -0.009016
O	      4.21724      4.36841      1.94979        -0.030316      0.008164     -0.261854
O	      4.16565      2.00745      4.13327        -0.121744     -0.174102     -0.072790
O	      6.53217      4.30403      4.17868         0.044723     -0.004101     -0.083722
O	      6.35940      2.01459      6.16890         0.004742     -0.197452      0.111076
O	      8.61611      4.29372      6.15541         0.105487     -0.030152     -0.013019
O	      2.13188      4.34517      4.34850         0.008775      0.073725     -0.006034
O	      4.27646      6.51834      4.24780         0.022183     -0.016110     -0.064415
O	      4.13927      4.43729      6.38285        -0.062412      0.050868      0.047583
O	      6.28136      6.49311      6.12401        -0.007414      0.029913     -0.003173
O	      6.19285      4.36872      8.33535        -0.199242      0.000957      0.061946
O	      8.43889      6.68188      8.40534         0.046906      0.292562      0.078072
O	      2.01570      6.60762      6.27909        -0.079496      0.007767      0.005786
O	      4.31540      8.79568      6.32868         0.030580      0.055618      0.010557
O	      4.25618      6.47171      8.41397         0.017720     -0.060499      0.227557
O	      6.49281      8.71954      8.26957         0.052451     -0.008877     -0.147489
O	      6.19955      6.54765     10.52260        -0.175930     -0.024410     -0.022633
O	      8.45017      8.88702     10.32714         0.169622      0.061049     -0.197577
