# total energy = -247.04424368 eV
 
CRYSTAL
PRIMVEC
-0.037343 6.572543 6.143298 
6.493614 -0.050045 6.155438 
4.305003 4.366116 -0.009267 
PRIMCOORD
36 1
Li	      6.57894      6.51859     12.10978        -0.010815     -0.005772      0.015417
Li	      4.47827      6.43755     10.31450         0.003099     -0.015248      0.039084
Li	      6.48675      8.50221     10.31412         0.002452     -0.021644      0.037756
Li	      4.32093      4.35269      4.22600        -0.006748      0.018755     -0.020786
Li	      4.36412      2.29570      6.05225        -0.033657      0.039390     -0.021527
Li	      6.39336      4.53127     10.35188         0.040506      0.008978      0.025910
Li	      8.44250      6.58488     10.33882         0.000583      0.024788      0.023411
Li	      2.15662      4.47103      6.07722        -0.001962     -0.027434     -0.035578
Li	      4.17649      6.49729      6.06992        -0.020863     -0.003859     -0.051756
Sc	      6.47740      6.56284      4.24188        -0.005258     -0.054610      0.138181
Ti	      4.45859      8.57318      8.16352         0.241008     -0.239048     -0.068552
Ti	     10.63312      6.46988      8.21812        -0.255854      0.013395      0.098761
Ti	      2.21051      4.32468      2.08323         0.112880      0.183045      0.179990
Mn	      8.60733      8.65276     12.14373         0.013616     -0.031093     -0.084415
Mn	      6.45881      4.31937      2.07206        -0.006590     -0.059065      0.004739
Mn	      6.41127      4.28193      6.09337        -0.043194      0.024493     -0.025920
Mn	      6.52195      6.52870      8.23937         0.043774      0.013946      0.029835
Ni	      4.28013      4.46161      8.24413        -0.053016      0.078737      0.000861
O	      2.13484      2.27909      2.02129         0.012906      0.087064     -0.013646
O	      4.13923      4.45056      2.02451        -0.176790      0.039903     -0.032935
O	      4.23645      2.26953      3.90545        -0.007117     -0.031734     -0.104480
O	      6.39787      4.45324      4.15817         0.048558      0.036348      0.062088
O	      6.48219      2.08783      6.29163        -0.039704     -0.016016      0.147406
O	      8.44537      4.09258      6.22138        -0.011090     -0.047996      0.012422
O	      2.09273      4.29905      3.95075         0.004124     -0.010028     -0.248254
O	      4.38491      6.52608      3.91913        -0.051520     -0.015670     -0.193908
O	      4.45614      4.37023      6.26990         0.025493      0.023548     -0.184246
O	      6.57831      6.54971      6.19845        -0.027561     -0.021727     -0.129031
O	      6.52555      4.15002      8.12106         0.063572     -0.056122     -0.000472
O	      8.72710      6.28807      8.16998         0.343746     -0.139053      0.022831
O	      2.15791      6.78551      6.15256        -0.017684      0.031171     -0.085411
O	      4.23968      8.85138      6.32150         0.070603     -0.063295      0.181411
O	      4.28550      6.67876      8.19087         0.009692      0.281588     -0.005893
O	      6.36718      8.77756      8.16078        -0.292282     -0.005054     -0.011366
O	      6.45345      6.51208     10.20088         0.005028     -0.030747      0.121656
O	      8.59648      8.70345     10.18962         0.020064     -0.009934      0.176418
