# total energy = -254.57401740 eV
 
CRYSTAL
PRIMVEC
-0.019136 6.410780 6.394033 
6.463164 -0.019041 6.393618 
4.279483 4.243919 0.016894 
PRIMCOORD
36 1
Li	      2.21929      8.46125      6.42288         0.053852     -0.008570     -0.031946
Li	      2.15922      6.44381      8.42337        -0.043286     -0.029574      0.013532
Li	      4.27541      8.45921      8.46507         0.035574      0.010836     -0.004413
Li	      6.30084      6.49195      4.29762         0.063678     -0.043032     -0.051852
Li	      8.57323      6.39983      6.47697        -0.041058      0.008683      0.004374
Li	      6.31434      4.32469      6.45237        -0.043792      0.018869      0.041015
Li	      4.47092      8.36286      4.34525         0.023389      0.003167     -0.008024
Li	      6.42218      8.48338      6.39742         0.011648      0.011006      0.044303
Li	      4.29170      4.25426      8.36918        -0.017340     -0.037688      0.025715
Sc	      4.20791      4.24557      4.32381        -0.053444     -0.016252      0.022195
Ti	      8.47632      4.22100      4.36144        -0.045066     -0.149508      0.170514
Ti	      6.41925      8.54793     10.57695         0.076159      0.076091     -0.637836
Ti	      6.59434      2.18097      8.37179         0.460782      0.088841     -0.017967
Mn	      4.38673     10.49155      6.44376         0.026432     -0.089321     -0.006772
Mn	      8.59568      4.22678      8.45103        -0.023510      0.012113     -0.036401
Mn	      2.18949      6.43234      4.26484        -0.030481      0.020205      0.014163
Mn	      4.25440      6.44282      6.47046         0.008811      0.026237      0.012273
Mn	      6.41457      6.35625      8.50115        -0.018671      0.082712      0.029855
O	      1.98192      2.11363      2.08667        -0.346165     -0.023317     -0.015948
O	      4.29309      4.36854      2.16258         0.031647      0.121983      0.040931
O	      4.43194      2.08138      4.32718         0.084533     -0.027994      0.013923
O	      6.51738      4.14458      4.31896         0.143261     -0.078984      0.011567
O	      6.43090      2.05860      6.44613        -0.031742      0.058112      0.098607
O	      8.67995      4.24234      6.22428        -0.023950      0.019017     -0.277355
O	      2.20329      4.22131      4.25115         0.027371     -0.020701      0.003285
O	      4.30529      6.33887      4.09774         0.057492      0.008678     -0.093410
O	      4.28371      4.45375      6.34747         0.007243     -0.055568     -0.029520
O	      6.27651      6.40361      6.60368         0.010194     -0.038819     -0.009005
O	      6.41234      4.09145      8.50407        -0.055110     -0.315264      0.004824
O	      8.47311      6.38600      8.51351        -0.146343      0.043470     -0.060970
O	      2.24914      6.40557      6.38694         0.023315      0.014154      0.009562
O	      4.27453      8.40609      6.42192         0.009712     -0.037107     -0.031842
O	      4.40698      6.41117      8.74552         0.048517     -0.015345      0.077160
O	      6.41430      8.54845      8.74485        -0.021505      0.081946      0.697147
O	      6.36434      6.48304     10.57793        -0.074957      0.128983     -0.020486
O	      8.37647      8.66349     10.72566        -0.187191      0.151939     -0.001194
