# total energy = -205.78619728 eV
 
CRYSTAL
PRIMVEC
0.050010 6.192034 6.231639 
6.323389 0.004789 6.276845 
4.225697 4.168443 -0.007003 
PRIMCOORD
36 1
Li	      4.33398     10.32798      6.26439         0.010463      0.038021     -0.015017
Li	      6.37714     10.29966      8.28365        -0.015370     -0.007833     -0.004219
Li	      6.39295      8.27723     10.36851         0.034248      0.026917     -0.029689
Li	      4.28226      4.16048      4.25025         0.035293      0.039435      0.019355
Li	      6.20623      4.20372      6.25526        -0.008581     -0.019449     -0.004163
Li	      8.39383      6.19937     10.46025        -0.054254     -0.002533      0.014139
Li	      2.26737      4.20750      6.19666         0.013499      0.026820     -0.006425
Li	      4.16572      6.08035      6.29790        -0.057980     -0.060865     -0.033036
Li	      4.23767      4.09705      8.27217         0.016703     -0.007864      0.041281
Sc	      2.09468      8.13208      6.21406        -0.013980     -0.033153     -0.042996
Sc	      4.19065      0.02324      4.17620        -0.060326     -0.086248      0.016208
Cr	      4.39173      8.31664      8.23292         0.013876      0.069397     -0.119168
Co	      4.22998      6.20385      2.09704        -0.053696      0.041471      0.079741
Cu	      2.14086      4.15721      2.09492        -0.022947     -0.018558     -0.049139
Ni	      6.33087      6.24298      4.16799         0.013540     -0.090448      0.071188
Ni	      4.23914      2.11694      6.30380         0.140719     -0.082984     -0.063070
Ni	      4.26663      8.29933      4.16642        -0.057241     -0.017618      0.122924
Ni	      6.40658      6.23148      8.30442         0.001672     -0.061359     -0.045438
O	      4.23539      3.98269      6.30756        -0.005346      0.198980      0.021329
O	      2.23988      2.14802      2.08444         0.181722     -0.074367     -0.080904
O	      4.13922      4.22449      2.09577         0.078105      0.041600     -0.016384
O	      4.09377      2.12705      4.03590         0.127578     -0.008474     -0.102701
O	      6.36016      4.33989      4.14002         0.069509     -0.159929     -0.015368
O	      6.22657      2.08471      6.46006         0.081044     -0.026484      0.063273
O	      8.48223      4.28043      6.26997        -0.017970     -0.080516     -0.035683
O	      2.05906      3.96700      4.10476         0.104363      0.204001      0.025465
O	      4.39425      6.24218      4.00024        -0.042248     -0.092160     -0.059498
O	      6.53354      6.25454      6.31908        -0.104862      0.007170      0.038696
O	      6.45684      4.01339      8.38180        -0.082831     -0.254550     -0.076919
O	      8.41107      6.12658      8.37151        -0.072994      0.103861      0.062869
O	      2.15145      6.20280      6.22337        -0.028752      0.043640      0.008521
O	      4.20368      8.30345      6.35940        -0.005093      0.015679      0.166583
O	      4.39801      6.34201      8.28808        -0.024366      0.056246      0.021328
O	      6.18845      8.30648      8.37663        -0.076199      0.155600      0.001594
O	      6.35876      6.17892     10.26761        -0.066860      0.080329      0.030943
O	      8.46922      8.33175     10.43970        -0.050436      0.036225     -0.005621
