# total energy = -46.60432175 eV
 
CRYSTAL
PRIMVEC
-0.000638 2.064836 2.067111 
2.051629 2.106147 -4.176177 
-4.129506 2.102331 -2.103368 
PRIMCOORD
8 1
Li	     -2.03564      4.10826     -2.04176        -0.004731      0.006360      0.002567
Li	     -0.04361      2.16948     -2.16929         0.005215     -0.006436     -0.002803
Mn	      0.00008      0.00154      0.00061         0.000287      0.003562     -0.004114
Ni	     -2.06495      2.08537     -0.01765         0.000708      0.000477     -0.000053
O	     -2.08338      4.31738     -4.32174        -0.100562      0.047165     -0.040993
O	     -2.19242      2.08634     -2.08349        -0.055534      0.089906     -0.094351
O	      0.11426      4.19063     -2.12799         0.055331     -0.091524      0.095576
O	      0.00510      1.95921      0.11011         0.099286     -0.049510      0.044170
