# total energy = -91.74667394 eV
 
CRYSTAL
PRIMVEC
0.000054 2.081377 2.086896 
6.106277 0.000773 -2.088151 
-2.044893 6.274647 -4.203107 
PRIMCOORD
16 1
Li	      2.09584      2.11026     -0.03697        -0.016284      0.026020     -0.021372
Li	      3.90983      2.12165     -2.13825        -0.020169      0.016557     -0.009926
Li	      2.05181      4.14167     -2.05011        -0.008911     -0.046512      0.022860
Li	      0.07415      6.33701     -2.20243        -0.030197      0.007654      0.014780
Mn	     -1.97561      6.24611     -4.17932         0.067217      0.036975     -0.041374
Mn	      0.04304      4.17157     -0.00813         0.089544     -0.036428      0.023500
Ni	      4.03320      4.14233     -4.15528         0.048673      0.035147     -0.024769
Ni	      1.95916      6.26717     -4.20100        -0.059921      0.011848     -0.026137
O	     -0.02518      4.02919     -1.94901         0.099505     -0.020637      0.022876
O	     -0.03315      2.11771     -0.04594        -0.005657      0.074255     -0.057745
O	      4.09656      6.28702     -4.21831         0.055374      0.012626     -0.015469
O	      4.16850      4.20354     -2.13106         0.045455     -0.116754      0.107283
O	     -0.11157      6.26842     -4.20899        -0.072543     -0.006837      0.017317
O	      4.19794      1.99760      0.08356         0.007174      0.051932     -0.060008
O	      2.04444      6.36590     -2.21872        -0.123082     -0.035733      0.040133
O	      1.88884      2.10244     -2.10675        -0.076178     -0.010113      0.008051
