# total energy = -93.15681854 eV
 
CRYSTAL
PRIMVEC
-2.092349 4.289958 -2.091624 
2.059540 4.255996 2.057815 
2.077604 0.017598 -6.225930 
PRIMCOORD
16 1
Li	      0.02999      4.35223     -4.27730         0.057679     -0.014893      0.223624
Li	     -0.03132      4.33193     -0.06340        -0.074030      0.033430      0.090699
Li	      0.04162      2.18549     -2.16647         0.062913      0.118321     -0.063414
Li	      2.05786      2.18057     -4.17848        -0.058235      0.092931      0.056146
Mn	     -0.02929      0.06459     -0.03299         0.921512      0.070740     -0.298133
Mn	     -0.02320      6.51508     -2.13494         0.395026     -0.879006     -0.123147
Ni	      2.09640      6.51389     -4.25359        -0.249676     -0.351154      0.385199
Ni	      2.08202      4.33945     -2.11351        -0.390709      0.252897     -0.247664
O	     -0.01643      4.31070     -6.46572         0.071917      0.089329      0.648086
O	      1.95599      6.45591     -2.13834        -0.584406     -0.258749     -0.199794
O	      2.22227      4.39739     -4.22877        -0.327948      0.218264      0.089165
O	      2.07519      4.15571      0.05362        -0.203058      0.051633     -0.359883
O	      2.07295      2.28708     -2.02155         0.127145     -0.133033      0.654670
O	     -0.00581      6.67934     -0.10152         0.018377     -0.224506     -0.614693
O	     -0.08691      4.51881     -2.11041         0.006619      0.573247      0.022594
O	      0.06602      1.99641     -0.02628         0.226873      0.360551     -0.263454
