# total energy = -207.06017202 eV
 
CRYSTAL
PRIMVEC
0.020977 6.273623 6.362667 
6.204372 0.055786 6.327366 
4.141351 4.164361 0.032349 
PRIMCOORD
36 1
Li	      4.13205      2.16555      2.14575        -0.033709     -0.018432      0.057207
Li	      4.13826      6.29774      2.24268         0.055240     -0.175160      0.007251
Li	      2.03074      2.19393      4.11905         0.023810     -0.116635     -0.057900
Li	      4.11312      4.18660      4.23417         0.084741     -0.023442     -0.039570
Li	      6.15651      4.24973      6.52369         0.050709      0.061306      0.017694
Li	      8.27946      6.27608     10.39581         0.009320     -0.035700      0.002682
Li	      2.05890      4.26588      6.26667         0.070929     -0.002028     -0.067622
Li	      8.34483      8.30150      8.52558        -0.088313      0.047429     -0.040421
Li	      6.34847      6.21443      8.49836        -0.107530      0.088517     -0.009383
Sc	      4.13474      6.31412     10.48007        -0.389696      0.168946     -0.396853
Sc	      4.10171      2.26901      6.39976        -0.281696      0.009565      0.129876
Cr	      4.24310      6.24452      6.34668         0.115317     -0.237268      0.598267
Co	      6.16747      4.17385      2.13198         0.149138      0.194315      0.222465
Cu	      0.07327      6.24953      6.36605         0.124821     -0.054685      0.386790
Cu	      6.23553      8.39419     10.54854        -0.161075      0.186441     -0.236983
Cu	      0.05798      4.14627      4.21743        -0.029293      0.133266      0.002048
Ni	      2.06289      2.06719      0.05031         0.047657     -0.035267      0.248572
Ni	      2.05994      4.18582      2.19097         0.406391     -0.267338     -0.161546
O	      6.25623      4.20026      8.61893        -0.184783     -0.009114      0.186192
O	      4.14874      8.34071      6.26181         0.017371      0.006144     -0.315046
O	      6.22623      8.58129      8.60130         0.037701     -0.357650      0.424083
O	      2.04588      1.93134      2.08030        -0.041690      0.271755     -0.152100
O	      4.27078      4.17199      2.01012        -0.390559     -0.012072     -0.065002
O	      4.15988      2.08400      4.26419         0.090037      0.058625     -0.036005
O	      6.17788      4.15182      4.07741         0.103821      0.061429      0.182062
O	      6.22819      2.04534      6.18645         0.056568      0.131197     -0.284678
O	      8.35888      4.20796      6.36514        -0.211773      0.058634     -0.169119
O	      2.02192      4.14496      4.18381        -0.057037      0.100745      0.246701
O	      4.07990      6.33119      4.53651        -0.034631     -0.149954     -0.143716
O	      4.18368      4.29371      6.34974        -0.036668      0.042258      0.027880
O	      6.09201      6.28182      6.46372        -0.038994     -0.011077     -0.047074
O	      8.31686      6.26846      8.41089         0.057749      0.137843      0.011185
O	      2.12777      6.27600      6.55765         0.073498     -0.056093     -0.206345
O	      4.00273      6.32023      8.36579         0.296092      0.003538     -0.099084
O	      6.24733      6.30383     10.63876         0.103290      0.000932     -0.189424
O	      8.29595      8.39893     10.64356         0.113247     -0.200969     -0.033085
