# total energy = -206.95984843 eV
 
CRYSTAL
PRIMVEC
-0.008674 6.531738 6.204470 
6.191494 0.017927 6.177283 
4.129205 4.338544 0.010368 
PRIMCOORD
36 1
Li	      0.03191      6.42688      6.11411        -0.014253      0.054529     -0.038061
Li	      8.26441      2.28742      6.10174        -0.035476      0.049177      0.070351
Li	      2.00533      0.05776      1.98885        -0.028508      0.052682     -0.020615
Li	      4.17752      8.51596      8.27676        -0.057098     -0.025535      0.110572
Li	      8.29831      4.30372      4.22583         0.000018      0.007534     -0.009415
Li	      8.22634      6.46752      6.13211         0.050480     -0.013815     -0.008775
Li	      6.31309      4.29045      6.08350        -0.014753     -0.089447     -0.007438
Li	      8.14157      6.63122     10.42736         0.054788      0.024061      0.023026
Li	      4.06116      6.60347      6.21571        -0.020089     -0.029677     -0.000807
Sc	      8.26990      4.36059      8.10318        -0.013389     -0.035963     -0.183281
Sc	      8.18425      8.77391      8.27324         0.069351     -0.028782      0.022149
Cr	      6.23349      2.13070      8.12330        -0.059131     -0.003877      0.313619
Co	      2.11468      2.16548      4.12971         0.091699     -0.203748     -0.206296
Cu	      6.14105      2.16582      4.23561        -0.178715     -0.085931      0.347922
Cu	      4.16335      4.36513      4.19635         0.055512      0.281911     -0.308339
Cu	      4.10200      8.66924      4.19815        -0.036019     -0.357256     -0.433786
Cu	      6.14070      8.75861      6.23069         0.096286     -0.057149      0.252925
Cu	      6.18113      6.57681      8.23617         0.212444     -0.094595     -0.107915
O	      6.17161      6.81815      6.32983         0.007336      0.033127      0.042252
O	      2.03245      6.26794      6.19162        -0.045740      0.140385     -0.021231
O	      4.25274      8.72897      6.12044        -0.069305     -0.078339     -0.225522
O	      6.16710      8.85495      8.55993        -0.143301      0.115728     -0.075663
O	      6.17839      6.28947     10.10243         0.046563     -0.157541      0.223227
O	      2.00012      2.18930      2.03376         0.303857      0.015331      0.028747
O	      4.13968      4.58734      2.17978         0.045398     -0.429328      0.161529
O	      4.19226      2.34727      4.14269         0.072168     -0.267698     -0.005684
O	      6.11694      4.69915      4.22677        -0.164131      0.268266     -0.013250
O	      6.19010      2.18621      6.25751        -0.080457      0.172073     -0.872270
O	      8.27342      4.36698      6.17757         0.014082     -0.013792      0.007628
O	      2.19520      4.03237      4.05941         0.126741      0.059392      0.058059
O	      4.23823      6.55185      3.99147        -0.106998      0.379571      0.482335
O	      3.94797      4.41623      6.16585        -0.017463      0.057961      0.029635
O	      6.15704      4.09199      8.32489         0.007442      0.261159      0.263514
O	      8.22506      6.51615      8.26658        -0.240043      0.031357      0.035414
O	      4.31401      6.48580      8.25633        -0.149527      0.012885      0.028914
O	      8.03871      8.66243     10.35694         0.220230     -0.044656      0.036530
