# total energy = -203.80493481 eV
 
CRYSTAL
PRIMVEC
0.031584 6.284117 6.273456 
6.266684 0.051393 6.253526 
4.204535 4.202901 0.007645 
PRIMCOORD
36 1
Li	     10.37271      4.31581      6.35929         0.038424     -0.023147      0.016443
Li	      4.20400      2.19183      2.21778        -0.002486      0.034977      0.084651
Li	      8.37107      4.30086      4.26297        -0.028091      0.038991      0.034768
Li	      6.19063      2.15632      4.15538        -0.028216      0.049685      0.030851
Li	      0.05780      2.01239      1.99046        -0.028021      0.005641     -0.003873
Li	      2.15560      4.15822      2.04477        -0.016363     -0.016287     -0.001876
Li	      2.17456      2.08936      4.17228         0.104637     -0.062949     -0.031160
Li	      4.24670      4.15436      4.14247         0.055014     -0.107779     -0.074791
Li	      6.28065      4.25977      6.31888         0.079789     -0.084181      0.068311
Sc	      6.31832      4.25418     10.38260        -0.115871      0.088721     -0.168448
Sc	      8.38758      6.31461     10.34140        -0.069898      0.095024     -0.159115
Cr	      8.23124      2.23199      6.32639        -0.195706      0.067843     -0.085792
Co	      4.20509      6.28834      6.28461         1.112150     -0.444055     -0.446090
Ni	      6.27234      4.21618      2.10834         0.031182     -0.007636     -0.232758
Ni	      8.43932      6.23626      6.23524         0.071836      0.044145      0.136304
Ni	      6.31641      8.38616      6.28076        -0.237980      0.155841     -0.019640
Ni	      4.19155      4.24188      8.31728         0.034373     -0.072004      0.190926
Ni	      6.26397      6.33907      8.35547        -0.019484      0.053068      0.133609
O	      6.33516      4.23238      3.93559        -0.026782      0.055120      0.415205
O	      2.11016      2.00328      1.90977         0.059980      0.104618      0.020851
O	      4.41821      4.20306      2.09104        -0.317483      0.006770      0.024191
O	      4.16069      2.09629      4.31808         0.018254      0.067388     -0.302683
O	      6.40878      2.15949      6.23305         0.144028      0.076502      0.019196
O	      8.40253      4.14118      6.32640        -0.100596     -0.097007     -0.000691
O	      2.09050      4.23785      4.20955         0.024678     -0.069739     -0.092055
O	      4.21570      6.31044      4.37970        -0.184308     -0.077379     -0.451081
O	      4.16262      4.37540      6.27792         0.136749     -0.527269     -0.205669
O	      6.15483      6.37022      6.36788         0.400473     -0.119510     -0.208210
O	      6.20034      4.27396      8.36399         0.197531     -0.054790      0.114551
O	      8.37125      6.39006      8.26887         0.062968     -0.166940      0.219228
O	      2.22068      6.33158      6.32740        -0.774225      0.160509     -0.156903
O	      4.12769      8.20369      6.28519        -0.202598      0.831816     -0.070947
O	      4.12503      6.28558      8.18021        -0.129543      0.104800      0.848509
O	      6.37020      8.49666      8.30871        -0.210024     -0.028331      0.133617
O	      6.34187      6.31554     10.39726         0.047196     -0.007199      0.095826
O	      8.42885      8.41766     10.58330         0.068412     -0.075255      0.124747
