# total energy = -209.15776163 eV
 
CRYSTAL
PRIMVEC
-0.002193 6.333622 6.240030 
6.245416 0.028705 6.209623 
4.173180 4.211422 0.009386 
PRIMCOORD
36 1
Li	      8.31946      2.20626      6.26046         0.010543      0.018986     -0.058117
Li	      4.14144      8.40279      8.30347         0.037096     -0.028635      0.007285
Li	      6.36069      6.23403      4.19854        -0.019498      0.030572     -0.007633
Li	      4.17375      4.21887      4.17739         0.003647     -0.017235     -0.006341
Li	      8.22300      6.33410      6.17357        -0.043268      0.020876      0.023043
Li	      6.28799      4.33785      6.20407         0.073306      0.034806     -0.004716
Li	      4.22335      6.32403      6.34250         0.017242      0.057025      0.040787
Li	      4.09327      4.36339      8.25776        -0.015049      0.007022      0.016011
Li	      6.21045      6.34296      8.17757        -0.048441      0.037897      0.012511
Sc	      6.26154      2.12019      8.15107        -0.153372      0.023716      0.190950
Sc	     10.36267      8.48448     10.36373        -0.011296     -0.076955      0.085457
Cr	      6.15751      2.16368      4.13350         0.029993     -0.132782     -0.022126
Co	      2.09038      6.31495      4.16505         0.498289     -0.174458      0.048282
Co	      2.16960      4.14913      6.22696        -0.178777     -0.068114     -0.156224
Cu	      2.11775      4.16404      2.01496        -0.086024      0.106046      0.151588
Ni	      4.17062     10.52397      6.26723         0.154074     -0.045556     -0.158865
Ni	      2.12814      0.01803      2.10824        -0.081480      0.069097     -0.154086
Ni	      8.27883      4.27631      4.16025         0.179139     -0.144513      0.168144
O	      6.23373      6.51428      6.18435         0.024696      0.059414      0.068687
O	      2.07067      2.11538      2.10062         0.077521     -0.070123     -0.071263
O	      4.18871      4.21575      2.05799         0.046837     -0.005729      0.097715
O	      4.33477      2.08272      4.19012         0.101873      0.174931     -0.040889
O	      6.26273      4.12554      4.17734        -0.264101     -0.042039      0.026341
O	      6.27396      2.09785      6.09784        -0.034554      0.067604     -0.094622
O	      8.40496      4.22234      6.20596        -0.109420     -0.008971      0.095870
O	      2.07218      4.37422      4.11975        -0.176257     -0.602271     -0.001934
O	      3.98767      6.37178      4.12165         0.440198      0.248007     -0.010966
O	      3.89681      4.23296      6.25914         0.089027     -0.024099      0.015124
O	      6.30476      4.21074      8.28613        -0.044748      0.049337     -0.140758
O	      8.32534      6.26426      8.47651        -0.067526     -0.026853     -0.642723
O	      2.07683      6.18218      6.11604         0.010582     -0.113986      0.612965
O	      4.43053      8.46487      6.21866         0.092278     -0.053381      0.073755
O	      4.09705      6.35025      8.42580         0.037759      0.012989     -0.278693
O	      6.27705      8.52712      8.49768        -0.026836     -0.105602      0.073385
O	      6.31043      6.42049     10.36923        -0.479960      0.062006      0.039784
O	      8.26545      8.34779     10.43626        -0.083494      0.660974      0.002273
