# total energy = -207.85245947 eV
 
CRYSTAL
PRIMVEC
0.026453 6.312658 6.226209 
6.243479 0.036106 6.217624 
4.192723 4.233995 -0.007228 
PRIMCOORD
36 1
Li	      6.21972      4.32763      2.15286         0.029770      0.044455      0.010903
Li	      4.11948      2.17390      2.20322        -0.016732     -0.013236      0.015668
Li	      4.25542      6.28871      2.21055         0.016275     -0.059770      0.148173
Li	      2.11148      4.19959      2.19100         0.015418      0.006251      0.023018
Li	      2.10943      2.13319      4.00723        -0.013860      0.017023      0.048272
Li	      4.17559      4.23492      4.01764        -0.009570      0.048805      0.056884
Li	      6.24592      4.29675      6.24065        -0.016805     -0.003197     -0.066321
Li	      2.11780      4.17390      6.18403        -0.017436     -0.024885     -0.018638
Li	      4.21701      4.20284      8.28062        -0.015966      0.039037     -0.047884
Sc	      4.24817      4.21056      0.15358         0.045453      0.054571      0.045818
Sc	      2.08424      2.18995      0.14795         0.020047     -0.041277      0.024081
Cr	      6.23783      2.24902      4.01615         0.061657     -0.055735      0.045612
Co	      4.13009      2.25913      6.24052         0.000233      0.099679     -0.059941
Co	      4.21420      6.29284      6.24528        -0.089223     -0.043770     -0.810157
Cu	      2.14122      6.27941      4.07547         0.159493     -0.037633      0.043193
Cu	      6.27728      6.29900      8.25750        -0.150677      0.042648     -0.145131
Ni	      4.17607      6.36790     10.29355        -0.027132      0.033160     -0.164882
Ni	      0.03527      4.17793      4.10548        -0.144400     -0.060646      0.034903
O	      6.26745      4.31140      8.44322        -0.006239      0.022008     -0.239313
O	      8.27232      6.36014      8.22993        -0.016792     -0.043314     -0.201451
O	      2.08086      2.10996      2.07039        -0.024471      0.052799      0.064752
O	      4.20146      4.23735      2.05411        -0.003619      0.009855     -0.005112
O	      4.27677      2.08323      4.19986        -0.061102      0.176540      0.112387
O	      6.34032      4.06453      4.11639        -0.152093      0.002516     -0.016075
O	      6.25123      2.10096      6.05332        -0.045091      0.011249     -0.006675
O	      8.38961      4.34383      6.13076         0.016090      0.077941      0.147231
O	      1.93529      4.33278      4.14964         0.272795      0.036470      0.026422
O	      4.11665      6.33450      4.31512         0.208947     -0.055282      0.359065
O	      4.16835      4.06232      6.21576        -0.000017      0.195581      0.002185
O	      6.21188      6.30958      6.28567        -0.122321     -0.043916     -0.103041
O	      2.20623      6.34957      6.19821         0.225126     -0.038200      0.168127
O	      4.19258      8.45347      6.06042         0.048619     -0.362167      0.196863
O	      4.29389      6.31939      8.13876         0.000136      0.012541      0.244248
O	      6.25414      8.36014      8.43817         0.032039     -0.061740     -0.095264
O	      6.30258      6.44854     10.29906        -0.127927      0.108980      0.166213
O	      8.37749      8.46617     10.34237        -0.090625     -0.147338     -0.004134
