# total energy = -209.54391582 eV
 
CRYSTAL
PRIMVEC
0.006722 6.219378 6.283937 
6.348007 0.019596 6.271138 
4.236511 4.142202 0.008569 
PRIMCOORD
36 1
Li	      8.45826      8.28852     12.43690         0.043707     -0.027154     -0.078983
Li	      6.54707      8.18956     10.41898         0.052304     -0.010832     -0.049115
Li	     10.49457      6.29018      8.35664        -0.013339      0.001161      0.151404
Li	      8.46570      6.24591      6.43786        -0.080687      0.009219     -0.020707
Li	      8.35610      6.42774     10.36157         0.038355      0.039765      0.030131
Li	      6.37818      8.31823      6.37064        -0.029370      0.060586     -0.027202
Li	      4.24285      6.16859      6.28249         0.073962     -0.032448     -0.090672
Li	      8.39249      8.27330      8.34681         0.027945      0.065276      0.026470
Li	      6.51083      6.19347      8.41500        -0.020103     -0.014911      0.023586
Sc	      4.28602      8.25023      8.24070         0.062739     -0.151376      0.185639
Sc	      4.21353      4.17839      4.28968        -0.014410      0.224007      0.045242
Cr	      8.47687     10.33627     10.47710         0.270293     -0.278270      0.298960
Co	      6.42753      0.17824      6.23332         0.047199     -0.075516     -0.191089
Co	      6.33267      6.20997      4.22836         0.209140      0.253718      0.395462
Cu	      2.14877      6.19766      8.31007        -0.082469      0.102311     -0.006412
Cu	      8.42222      4.21948      8.34021         0.116601     -0.126242      0.024216
Cu	      6.34061      4.11614      6.36020        -0.034692      0.002953      0.052003
Ni	     10.55471      8.30662     10.46544        -0.043477     -0.174294      0.027628
O	      6.45811      4.16987      8.34916         0.050574      0.005191     -0.087612
O	      8.47648      6.12688      8.44006        -0.044733      0.015010     -0.060463
O	      2.06113      6.25115      6.34410        -0.150700     -0.004346      0.055556
O	      2.12411      2.01524      2.28922        -0.062623     -0.095541     -0.166231
O	      4.20112      4.14686      2.09365        -0.188061      0.091370     -0.194736
O	      4.04367      2.03898      4.14405         0.316627      0.050736      0.024873
O	      6.38409      4.24347      4.21112         0.004817      0.208008     -0.229877
O	      6.34856      1.99285      6.24301        -0.014331     -0.030396      0.042722
O	      8.40395      4.13276      6.29482        -0.205383     -0.043168     -0.129081
O	      2.10627      3.99357      4.10760         0.039569     -0.436079      0.099883
O	      4.43687      6.24193      4.20895        -0.336919     -0.281312      0.107364
O	      4.34448      4.13145      6.27364         0.156581     -0.038718      0.109687
O	      6.36103      6.17658      6.05852        -0.085361     -0.051273     -0.168860
O	      4.22819      8.46103      6.25739         0.034779      0.152151     -0.001606
O	      4.18305      6.21260      8.49160         0.185024      0.133000     -0.208351
O	      6.32094      8.39520      8.39756        -0.107788     -0.002419     -0.064306
O	      6.23825      6.22908     10.52504        -0.107734      0.163675      0.081182
O	      8.52175      8.36619     10.44682        -0.108033      0.296155     -0.006707
