# total energy = -208.31235210 eV
 
CRYSTAL
PRIMVEC
0.036251 6.239785 6.139077 
6.345900 0.020625 6.154462 
4.255123 4.195045 -0.010742 
PRIMCOORD
36 1
Li	      4.41030      8.38301      8.17224        -0.014119      0.001109      0.010145
Li	      6.41525      8.35957     10.17957        -0.077397     -0.036260      0.035442
Li	     10.45067      6.28289      8.18160        -0.063455     -0.016596      0.144490
Li	      8.45667      4.40365      8.20981         0.009120      0.041592      0.047655
Li	      8.57474      6.25955      6.28651        -0.031297      0.105383     -0.038772
Li	      8.42311      6.31813     10.10159        -0.001782      0.004828     -0.007554
Li	      6.37997      8.39730      6.18709         0.040270     -0.023483     -0.112187
Li	      8.37306      8.23644      8.22679         0.032199     -0.043388     -0.035521
Li	      6.59157      6.36927      8.15472         0.049696      0.013555     -0.017987
Sc	      2.15075      8.24871      6.17477         0.073788      0.052877     -0.024036
Sc	      4.27985      6.30476     10.14328         0.203482      0.173028     -0.003569
Cr	      6.32564      4.20225      6.29820        -0.314491      0.071502      0.572677
Co	      4.16328      4.13374      4.03083         0.387999      0.453224      0.644025
Co	      4.27763      6.24957      6.13523         0.039551     -0.141148     -0.033706
Cu	      4.25841      4.23575      0.04559        -0.119571     -0.037083      0.187079
Cu	      6.40587     10.36699      8.14744        -0.286864      0.062876      0.018948
Cu	      6.37001      6.26613      4.10159         0.091892      0.223533     -0.037961
Cu	      6.40200      4.18273     10.19283        -0.059480      0.074982     -0.479392
O	      6.21548      6.19180      6.14831        -0.059415     -0.071451      0.052688
O	      6.36994      4.20138      8.15429        -0.001791      0.008496     -0.251166
O	      8.48890      6.29907      8.19462         0.012815      0.039668      0.015910
O	      6.39329      8.53017      8.20273         0.043730     -0.265271      0.008743
O	      2.12272      1.83388      2.10757         0.048546      0.070957     -0.021919
O	      4.38377      4.16892      2.07439         0.226864     -0.027323     -0.076331
O	      4.12697      2.19109      4.12652         0.081127      0.214813     -0.059316
O	      6.33820      4.25108      4.30815        -0.470599     -0.190578     -0.149982
O	      6.38419      2.16561      6.12716         0.027520     -0.088517      0.007869
O	      8.31827      4.17035      6.14192        -0.318615      0.039228     -0.119671
O	      2.18222      4.02774      4.02788         0.511838     -0.115867      0.066918
O	      4.38001      6.22747      4.20162        -0.084848     -0.743796      0.052154
O	      4.36239      4.32062      6.02905         0.063303     -0.097855     -0.387374
O	      2.35101      6.22239      5.97240         0.125346     -0.118338      0.071223
O	      4.29761      8.24408      6.01918         0.008211      0.089243      0.097373
O	      4.13484      6.26242      8.07310         0.022495     -0.055089     -0.200339
O	      6.34309      6.23208     10.38330        -0.024076      0.376513     -0.040625
O	      8.62548      8.44537     10.23423        -0.171990     -0.045365      0.064070
