# total energy = -209.23947614 eV
 
CRYSTAL
PRIMVEC
0.030427 6.124336 6.357824 
6.201660 0.019254 6.369842 
4.150903 4.106818 -0.004084 
PRIMCOORD
36 1
Li	      8.20800      2.05030      6.33426        -0.045401      0.027357     -0.068837
Li	      4.25416      8.18007      8.46751         0.062920     -0.026797     -0.086113
Li	      6.27891      8.19505     10.55375         0.034680      0.012943     -0.006244
Li	     10.35513      6.14612      8.46130         0.002159     -0.018997     -0.040291
Li	      2.11471      1.99638      4.22586        -0.012575      0.005852      0.085974
Li	      6.21551      4.07299      6.41364         0.006251     -0.027092      0.060720
Li	      8.26516      6.22276     10.61144        -0.031151      0.065331      0.132946
Li	      6.24454      8.21808      6.50212         0.042121     -0.039963      0.113781
Li	      6.25638      6.20011      8.41837        -0.020225      0.036519     -0.131893
Sc	     10.33050      8.19852     10.55303        -0.018105      0.011063      0.086285
Sc	      4.23244      6.14773      6.42720         0.102067     -0.177770     -0.055298
Cr	      2.07569      3.98008      2.11320        -0.006393     -0.236493     -0.058532
Co	      4.14835      4.11391      0.03498        -0.024649      0.104496     -0.101598
Co	      8.25695      6.14662      6.35632        -0.892722      0.754241     -0.106540
Ni	      6.21050      4.11292      2.13566        -0.022644      0.146427     -0.151445
Ni	      4.09572      0.04290      4.21707        -0.007638     -0.038997      0.027463
Ni	      4.18867      4.10537      4.24416        -0.098605      0.016190      0.109890
Ni	      8.27493      8.16923      8.50260         0.024128     -0.048840     -0.015709
O	      2.08312      2.14045      2.06597        -0.008878      0.327281      0.021820
O	      4.08765      4.06798      1.96167        -0.239290      0.049309     -0.197714
O	      4.12467      2.06677      4.50619         0.019528     -0.047492     -0.040402
O	      6.19418      4.12617      4.03656         0.034549      0.004871      0.071019
O	      6.01863      1.87549      6.40023         0.790300     -0.277724      0.039397
O	      8.37938      4.19093      6.43154         0.253086     -1.034439      0.333956
O	      2.14587      4.16744      3.96446        -0.062592     -0.016611     -0.391585
O	      4.14152      6.14139      4.34686         0.010430      0.058664      0.055033
O	      4.18492      3.98412      6.36270         0.169603      0.921888      0.065643
O	      6.32143      6.15676      6.35925        -0.262903     -0.210138      0.029741
O	      6.30373      4.07644      8.48556         0.143070      0.040986      0.048956
O	      8.26559      6.06937      8.25863         0.024079     -0.249688      0.071810
O	      1.99170      6.17294      6.51809        -0.082812     -0.090119     -0.019606
O	      4.21719      8.27175      6.31981        -0.011631      0.085935     -0.034612
O	      4.18293      6.15183      8.50112         0.131752      0.078639     -0.115752
O	      6.27304      8.32310      8.49916        -0.133969     -0.146595      0.046924
O	      6.21041      6.15745     10.87936         0.101869      0.043865      0.177736
O	      8.31016      8.22978     10.55665         0.029592     -0.104103      0.043077
