# total energy = -212.55712974 eV
 
CRYSTAL
PRIMVEC
-0.010377 6.328425 6.004527 
6.477233 -0.024596 6.019068 
4.300465 4.211153 0.001204 
PRIMCOORD
36 1
Li	     10.72738      4.16369      6.02632        -0.031503     -0.007786      0.017414
Li	      8.61840      2.10465      6.02563        -0.019866     -0.002459      0.001761
Li	      4.34077      2.21878      1.98374         0.004427     -0.003206     -0.076688
Li	      4.31461      6.21513      1.98389         0.012013      0.022455     -0.033651
Li	      8.68418      4.28210      7.98845         0.010672     -0.008699     -0.072011
Li	      8.65451      6.30212      6.06073         0.023095     -0.042499      0.030505
Li	      2.18609      4.19247      6.01512         0.026408      0.007611      0.047613
Li	      8.53277      8.34041      8.04415        -0.038196      0.024998      0.004294
Li	      6.65889      6.29803      8.02089        -0.005136     -0.021405     -0.019206
Sc	      6.46845      4.13486      6.15790         0.082307     -0.010102      0.062845
Sc	      4.29261      6.36317      6.10867        -0.020241      0.035378      0.101064
Cr	      2.19250      2.18621      3.96640         0.122719     -0.039519     -0.001697
Co	      6.39851      4.22685      1.99738        -0.008669      0.047933     -0.132743
Co	      8.57520      4.16198      4.04039         0.023853     -0.033499     -0.086927
Co	      8.50888      6.19502      9.98694        -0.041416     -0.031405      0.101146
Cu	      6.39740      2.06665      4.00764        -0.083598     -0.101742     -0.099435
Cu	      6.46840      4.18556      9.98188        -0.117802     -0.071852      0.033797
Ni	      4.32406      4.17455      3.99582         0.011450     -0.002696      0.017248
O	      8.65749      6.31107      8.21503        -0.015501      0.013907      0.080177
O	      6.41458      8.63612      8.13654        -0.047674      0.097339     -0.077944
O	      2.18617      1.91388      1.99752         0.036671     -0.068773      0.005138
O	      4.54560      4.21498      2.01521         0.125796      0.031665     -0.135234
O	      4.35755      1.95736      4.00083         0.025961      0.057299      0.019979
O	      6.37753      4.40339      3.92229         0.057631      0.133041     -0.048576
O	      6.41750      2.08490      5.86579        -0.059301     -0.001862      0.183301
O	      8.56997      4.19354      5.88301        -0.100770      0.022131      0.188728
O	      2.35519      4.18009      3.94939        -0.056380      0.029912     -0.005991
O	      4.42687      6.47394      3.99219         0.064367     -0.080776     -0.029496
O	      4.37935      4.26560      6.00802         0.018266     -0.011897      0.114442
O	      6.40996      6.30338      6.00199         0.045983     -0.009999     -0.003620
O	      6.50469      4.18132      8.12295         0.016886     -0.005978     -0.168320
O	      2.18369      6.28037      5.96392         0.010061      0.012655     -0.074241
O	      4.27161      8.41155      5.82682        -0.007896      0.008803      0.131530
O	      4.07562      6.32953      8.15947        -0.104985      0.035939     -0.093380
O	      6.48611      6.06184      9.99292         0.088254      0.069348     -0.000471
O	      8.28499      8.53688     10.02691        -0.047885     -0.094264      0.018649
