# total energy = -92.97569007 eV
 
CRYSTAL
PRIMVEC
-2.102657 4.311091 -2.101927 
2.069686 4.276961 2.067952 
2.087838 0.017685 -6.256600 
PRIMCOORD
16 1
Li	      0.03028      4.39521     -4.31954         0.069074     -0.029572      0.295892
Li	     -0.02135      4.37480     -0.09484        -0.088669      0.042879      0.116554
Li	      0.04203      2.20708     -2.18787         0.080924      0.157018     -0.084178
Li	      2.07818      2.20210     -4.21975        -0.073427      0.120166      0.071590
Mn	     -0.03994      0.08646     -0.04366         1.202729      0.084195     -0.414118
Mn	     -0.02344      6.57942     -2.15603         0.499903     -1.125966     -0.156937
Ni	      2.11711      6.57823     -4.29560        -0.315639     -0.447969      0.502679
Ni	      2.10258      4.38230     -2.13438        -0.490083      0.312976     -0.334607
O	     -0.01659      4.35328     -6.52959         0.051011      0.077963      0.899172
O	      1.97530      6.51967     -2.15946        -0.717897     -0.353798     -0.281808
O	      2.24422      4.44082     -4.27053        -0.461303      0.304591      0.140423
O	      2.09569      4.19675      0.05415        -0.261312      0.080158     -0.500929
O	      2.08306      2.33090     -2.05186         0.185454     -0.127903      0.809887
O	     -0.00587      6.74530     -0.10252         0.020529     -0.298573     -0.749731
O	     -0.08777      4.56345     -2.13126         0.057180      0.722815      0.029636
O	      0.06667      2.01613     -0.02654         0.241525      0.481021     -0.343524
