# total energy = -213.17039877 eV
 
CRYSTAL
PRIMVEC
0.003300 6.309958 6.273974 
6.083687 -0.001446 6.278215 
4.064992 4.218638 -0.010027 
PRIMCOORD
36 1
Li	      2.03884      2.10984      0.14563         0.089943     -0.012053      0.001817
Li	      3.91769      2.22995      2.05496         0.182940     -0.009066      0.145731
Li	      8.06038      4.22663      4.23739         0.034418      0.084213      0.025828
Li	      2.17183      4.10468      2.10368        -0.056209     -0.024311      0.019729
Li	      4.02965      4.29037      4.10378         0.050763     -0.153608     -0.037738
Li	      4.07361      2.12574      6.27127         0.037984      0.020516     -0.143384
Li	      6.10857      4.22941      6.24122         0.036683     -0.004623     -0.002661
Li	      2.08278      6.24347      4.16566         0.009656      0.062654      0.002922
Li	      4.02224      6.20568      6.22696        -0.033044     -0.018749     -0.019074
Sc	      4.07227      8.35133      4.22776        -0.269243     -0.053279      0.052309
Sc	      6.07324      6.34607      8.25609        -0.045709     -0.042064      0.061481
Cr	     10.08974      4.26608      6.28594        -0.139301     -0.006402     -0.108363
Co	      6.08351      4.20930      2.08386        -0.049276      0.026671     -0.199738
Co	      6.00847      2.16947      4.22210         0.836444      0.050582     -0.321516
Co	      4.02929      4.24119      8.32789        -0.013876      0.026840      0.244693
Ni	      4.06886      6.32448      2.09704        -0.013205     -0.008216     -0.012326
Ni	      6.13715      6.27919      4.20906         0.301799     -0.077825      0.005153
Ni	      2.07560      4.22299      6.21005         0.016216      0.026053      0.004268
O	      2.02553      1.89574      2.18570        -0.056984      0.057742     -0.085953
O	      4.15347      4.27018      1.97247         0.045269     -0.003269      0.023331
O	      4.21858      2.12021      4.15368        -0.465550     -0.021636      0.066242
O	      6.07974      4.15688      4.01018        -0.111516     -0.366170      0.280410
O	      6.15259      1.95992      6.22303        -0.159137      0.134434     -0.195744
O	      8.27840      4.18417      6.35069         0.001953     -0.015357      0.002110
O	      2.04561      4.14548      4.15216        -0.005949      0.015541     -0.020118
O	      4.09176      6.32751      4.17288        -0.226694      0.037985     -0.033530
O	      4.04763      4.22047      6.50884         0.211533     -0.020461     -0.037220
O	      6.11699      6.35363      6.24984        -0.102526     -0.049818      0.110039
O	      5.97510      4.25025      8.37944        -0.012962      0.033092     -0.099361
O	      8.13245      6.54988      8.37074        -0.052304      0.037288     -0.061028
O	      1.93726      6.27490      6.42178         0.026373      0.070828     -0.025333
O	      4.09797      8.58973      6.26576        -0.174308      0.014309      0.056587
O	      3.96315      6.15101      8.36448         0.005711     -0.168472     -0.063568
O	      6.15784      8.51719      8.34355        -0.010923      0.034490      0.323456
O	      6.07653      6.32487     10.49903         0.019134      0.319821      0.059001
O	      7.96150      8.42177     10.27096         0.091898      0.002317     -0.018455
