# total energy = -214.59669899 eV
 
CRYSTAL
PRIMVEC
-0.010818 6.251226 6.189097 
6.326565 -0.065601 6.245434 
4.162248 4.149103 0.011179 
PRIMCOORD
36 1
Li	      8.37050     10.33946     10.36025         0.070535     -0.034752      0.057879
Li	      6.38544      8.20016     10.34268         0.001960     -0.047559      0.016270
Li	      6.19831      2.17811      8.26241        -0.010718     -0.001975     -0.024585
Li	      8.25512      4.21128      8.27056         0.006211     -0.006913     -0.054637
Li	      8.42206      6.10351      6.39246         0.047169     -0.055833      0.058291
Li	      6.30565      4.20251      6.37555         0.043951      0.075842     -0.060658
Li	      6.29980      4.09950     10.19025        -0.054012      0.015365     -0.041040
Li	      8.42351      8.24298      8.34848        -0.025112      0.017516      0.029958
Li	      6.37002      6.08940      8.29904         0.012900      0.030898     -0.053505
Sc	      8.37556      2.06831      6.17682        -0.087092      0.202714     -0.214669
Sc	      4.19290      4.13416      4.17842         0.059575     -0.044973     -0.039922
Cr	      4.20149      8.26294      8.28359        -0.021033      0.180711      0.123484
Co	      6.31269     -0.03824      6.21342        -0.122146      0.312249     -0.195587
Co	      6.27008     10.36093      8.27742        -0.040965      0.002428      0.077577
Co	      2.11519      2.07464      4.14129         0.062802     -0.023329     -0.034314
Co	      6.25029      8.28769      6.21757         0.107548     -0.024156     -0.003691
Cu	      4.25847      6.16505      6.23055         0.111100     -0.012241     -0.064028
Ni	      8.33934      6.22217     10.28124         0.062698     -0.082104      0.079444
O	      6.32115      4.14055      8.24569        -0.034074      0.004877     -0.020529
O	      8.35791      6.15277      8.37673         0.024946     -0.002053     -0.242088
O	      2.17261      1.92431      2.15730         0.022041     -0.081343      0.061109
O	      4.30661      4.05897      2.00603         0.045919     -0.062923     -0.027907
O	      4.07779      2.04958      4.06644        -0.057828      0.064519     -0.060289
O	      6.28952      4.25074      4.04886        -0.062127      0.054355     -0.047860
O	      6.32868      1.84682      6.26322         0.049182     -0.266408      0.050438
O	      8.56510      4.07539      6.27152        -0.030740     -0.166162      0.003328
O	      2.09523      4.06681      4.24678         0.054074     -0.054554      0.113296
O	      4.28102      6.22480      4.26233         0.166181     -0.012533     -0.141519
O	      4.01620      4.16516      6.22793        -0.143214     -0.088006     -0.036513
O	      6.29951      6.37502      6.07710        -0.158888      0.105095     -0.061165
O	      1.95671      6.14129      6.27103         0.198526     -0.148456      0.137421
O	      4.25112      8.40506      6.26501         0.108523      0.040940      0.083351
O	      4.04761      6.28711      8.15644        -0.096350     -0.042926      0.170051
O	      6.19405      8.40842      8.17874        -0.072828      0.038824     -0.105249
O	      6.35429      6.16004     10.58875        -0.211636     -0.007315      0.276608
O	      8.39236      8.21668     10.40186        -0.027077      0.120182      0.191249
