# total energy = -215.49745192 eV
 
CRYSTAL
PRIMVEC
0.001903 6.206902 6.409537 
6.078752 -0.004612 6.415146 
4.064582 4.153836 -0.014622 
PRIMCOORD
36 1
Li	      8.08419      8.26910     12.66328        -0.042709     -0.098248      0.107685
Li	      8.10999     10.22955     10.70507         0.000015      0.027590     -0.021132
Li	      8.06671      4.16237      8.52630        -0.033141      0.050906     -0.019803
Li	      6.08173      6.23749      4.33760        -0.038388      0.100362      0.197474
Li	      4.10961      2.09911      6.40654        -0.229270      0.101986      0.124889
Li	      3.96641      8.17177      4.37751         0.128409     -0.129458      0.036249
Li	      8.14631      6.32187     10.64588         0.071512     -0.126114     -0.080884
Li	      4.03873      6.22098      6.40317         0.115543     -0.083624      0.019213
Li	      8.14445      8.27310      8.69235         0.050809     -0.044882     -0.105514
Sc	      3.94124      2.05195      2.08204         0.070718     -0.061120     -0.234973
Sc	      6.20530      6.13272      8.58465         0.150554     -0.155586     -0.819682
Cr	      4.01528      4.23768      4.28168        -0.492542      0.533624      0.195115
Co	      5.93363      0.03992      6.30417         0.272872     -0.020749      0.136726
Co	      6.10097     10.33307      8.53783        -0.056743     -0.006886     -0.329922
Co	     10.12294      6.21485      8.53399         0.049870      0.052930      0.212050
Co	      2.04185      4.09739      6.34162        -0.147953      1.012531      0.682129
Cu	      6.15578      8.30383     10.69936        -0.142632     -0.108397      0.035638
Cu	      6.13717      4.12319      6.39503         0.161449      0.132158      0.166378
O	      8.19793      4.15244      6.41018        -0.059848     -0.064484     -0.082966
O	      8.03277      8.27292     10.70829        -0.296000      0.077509     -0.013736
O	      1.92569      1.92946      2.16395        -0.005250     -0.250960      0.038498
O	      4.12151      4.23919      2.19782         0.182683     -0.007327      0.062148
O	      4.18720      2.27163      4.19741         0.325467     -0.188620     -0.006621
O	      6.02929      4.10036      4.23108         0.284099     -0.396897     -0.439150
O	      6.08866      1.98443      6.64723        -0.018234      0.051095     -0.135396
O	      2.17088      4.12862      4.32930         0.009896     -0.153828      0.792363
O	      4.09863      6.11017      4.10175         0.045003     -0.169630     -0.086511
O	      4.07338      4.22708      6.20397        -0.620898     -0.066975     -0.135893
O	      6.10268      6.35683      6.46564         0.041781     -0.304009     -0.117854
O	      6.10193      4.03724      8.41130        -0.030775     -0.128592      0.424200
O	      8.19558      6.18965      8.55287        -0.064308      0.035283      0.126080
O	      1.88849      6.09651      6.62860        -0.070931     -0.307894     -0.185061
O	      4.06842      8.34323      6.38883         0.752133     -0.018833     -0.098876
O	      4.01406      6.23174      8.53561        -0.412605      0.056575      0.193900
O	      6.07998      8.33195      8.39818         0.067182      0.242652     -0.858364
O	      6.09116      6.31529     10.70890        -0.017767      0.417914      0.221604
