# total energy = -215.22430588 eV
 
CRYSTAL
PRIMVEC
-0.002853 6.150228 6.237171 
6.199020 -0.025749 6.260492 
4.128132 4.110973 -0.012806 
PRIMCOORD
36 1
Li	      0.12205      6.10798      6.20136         0.040872      0.007607     -0.034395
Li	      2.10558      8.12545      6.14727        -0.023895     -0.007119     -0.146764
Li	      4.10968      8.18361      8.22100         0.088171     -0.002698     -0.005515
Li	     10.26161      6.18115      8.34031        -0.089363      0.006762      0.030044
Li	      4.17890      2.03053      6.25317         0.056611      0.008340      0.037299
Li	      4.13449      8.11230      4.29162         0.010824     -0.003757     -0.011307
Li	      8.24754      6.20928     10.39641        -0.026176      0.059664     -0.090540
Li	      1.94805      4.20241      6.15980        -0.024874     -0.008776     -0.027710
Li	      8.28512      8.14268      8.32070        -0.017602     -0.029768      0.052400
Sc	      8.32560      4.04291      8.22611        -0.053155      0.364358      0.104300
Sc	      6.16733      6.20643      8.28820         0.190499      0.036181      0.452410
Cr	      4.12687      4.09754      4.16667        -0.179808      0.068398     -0.006160
Co	      2.08050      0.00004      2.09443        -0.024636     -0.280038     -0.096902
Co	      6.24361      2.04958      4.21131        -0.030483      0.076685     -0.035373
Co	      2.07608      2.06204      4.18276         0.435582     -0.614148     -0.245519
Co	      6.18598      4.08253      6.22861         0.053350     -0.136996     -0.036389
Ni	      8.29829     10.22727     10.44840         0.104338     -0.096481     -0.030787
Ni	      4.08254      6.16567      6.23688        -0.160990      0.075640      0.026854
O	      4.10769      8.03416      6.22389        -0.035800      0.219003      0.158357
O	      2.07333      1.94649      2.26499         0.036200     -0.109971      0.455596
O	      4.22942      4.11213      2.12437         0.083235      0.003129      0.100451
O	      4.12960      2.08166      4.20876         0.364302      0.203034      0.009730
O	      6.17641      4.07668      4.19384        -0.176055     -0.329812      0.034398
O	      6.16097      2.16941      6.05661        -0.047820      0.105415      0.006185
O	      8.13917      4.04528      6.20779        -0.153892      0.022118      0.193070
O	      2.13531      3.98674      4.14263         0.411390      0.918345     -0.192829
O	      4.28973      6.10367      4.18865        -1.047742     -0.310109     -0.059383
O	      4.23565      4.22284      6.17034         0.071640     -0.192993     -0.070041
O	      6.14411      6.06732      6.14015         0.209597      0.057099     -0.262146
O	      6.20615      4.10683      8.17945         0.034652     -0.098702     -0.183680
O	      8.20044      6.08909      8.30684        -0.054611     -0.077387     -0.048543
O	      2.12406      6.13196      6.44966        -0.063103     -0.002594      0.160876
O	      4.02467      6.13199      8.36466        -0.105953      0.060043     -0.131073
O	      6.16818      8.29530      8.49907        -0.071840      0.184238      0.061997
O	      6.18688      6.29563     10.42946         0.026197     -0.195768     -0.183413
O	      8.05884      8.20628     10.40482         0.170337      0.021055      0.014500
