# total energy = -218.49276463 eV
 
CRYSTAL
PRIMVEC
0.043455 6.134757 6.374497 
6.173679 0.021897 6.395124 
4.131807 4.119752 -0.000584 
PRIMCOORD
36 1
Li	      6.13316      0.10967      6.30752         0.076986     -0.001221      0.129689
Li	      6.19278      2.07512      4.39112        -0.048067      0.049326      0.007439
Li	      6.09667      2.15426      8.46349        -0.075289     -0.024581     -0.009891
Li	      2.08704      4.09355      2.15849         0.007270      0.039604      0.028995
Li	      6.18166      6.17424      4.27161        -0.025870      0.015258      0.027401
Li	      8.34883      6.14584      6.46642         0.045247      0.155355      0.113473
Li	     10.31811      8.17169     10.58571         0.139956     -0.138900      0.018224
Li	      4.15607      6.15820      6.25885        -0.050153     -0.114234     -0.063252
Li	      8.34211      8.16004      8.56535         0.012539     -0.112480     -0.204191
Sc	      2.05071      4.08629      6.30578         0.455786      0.039697     -0.220179
Sc	      6.23235      6.09249      8.51535         0.350273     -0.087310     -0.184214
Cr	      6.17426      4.16335      2.16127        -0.297298     -0.035914      0.054734
Co	      2.06766      2.06996      0.02486        -0.066774     -0.206654      0.024997
Co	      8.26546      4.13190      4.33914        -0.114172      0.187895      0.038491
Co	      4.15348      4.08207      4.25815        -0.394842      0.366388      0.038418
Co	      6.19286      4.09298      6.38026        -0.383694      0.033168     -0.024832
Co	      8.28634      6.24472     10.56272         0.723613     -1.138065      0.102659
Cu	      4.09039      2.09966      2.11644         0.106005      0.293013      0.098238
O	      4.12248      2.11857      4.12601         0.024644     -1.016285      0.159271
O	      2.12798      2.01583      1.98293        -0.122443      0.060282     -0.048865
O	      4.20315      4.08586      2.31428         0.008217     -0.047454     -0.141207
O	      6.10804      4.14652      4.26883         0.549479      0.016108      0.017436
O	      6.31569      2.19248      6.39899         0.091156     -0.050133     -0.095157
O	      8.12522      4.03203      6.33139         0.179421      0.107017     -0.362172
O	      2.17651      4.11775      4.25644         0.031855      0.467329     -0.118179
O	      4.01197      6.02694      4.25104        -0.694306      0.150718     -0.041409
O	      4.22532      4.05649      6.17489        -0.055778      0.096358      0.263600
O	      6.19089      6.12510      6.40901        -0.036608     -0.021570     -0.081892
O	      6.17239      4.10179      8.32179        -0.013018      0.080846     -0.009022
O	      8.23712      6.21150      8.58574        -0.093099     -0.117474     -0.102165
O	      2.09298      6.21765      6.50526        -0.059452      0.251167      0.074123
O	      4.10098      8.22478      6.46846        -0.176821      0.022102     -0.067635
O	      4.08363      6.18130      8.67464         0.142851     -0.253470      0.256069
O	      6.19902      8.27778      8.43037         0.046754     -0.007186      0.180856
O	      6.32621      6.13704     10.63223        -0.262500      0.147383      0.085914
O	      8.33247      8.19712     10.84859        -0.021868      0.793919      0.054236
