# total energy = -217.80830689 eV
 
CRYSTAL
PRIMVEC
-0.002989 6.130910 6.412268 
6.225669 0.007273 6.401780 
4.144136 4.074000 0.011586 
PRIMCOORD
36 1
Li	     10.30302      4.09494      6.37013         0.112610     -0.006737     -0.021565
Li	      6.13982      4.09405      2.15938         0.087581     -0.016427     -0.040614
Li	      4.17836      0.07100      4.34402         0.030759     -0.024636     -0.112354
Li	      6.09529      2.04486      4.34563         0.007428     -0.003929     -0.008326
Li	      8.29116      4.11974      8.33446         0.064725     -0.041893     -0.041029
Li	      2.06071      2.04923      4.17632        -0.001154     -0.037576     -0.020801
Li	      8.36705      5.99727      6.40875        -0.035830     -0.025944      0.006527
Li	      2.09602      6.07277      4.30223        -0.029371      0.042938      0.070526
Li	      4.14443      6.15447      6.40888        -0.010937      0.025829      0.060270
Sc	      8.28818      8.10776     12.74781         0.171023     -0.008319      0.054686
Sc	      4.13833      4.15104      8.53961        -0.039503      0.388347      0.103357
Cr	      4.14188      4.05563      4.33939        -0.142540     -0.073658      0.058239
Co	      4.09889      2.01996      2.15921         0.041366      0.545108      0.210052
Co	      4.15951      6.05282      2.11602         0.207339      0.028226      0.010606
Co	      0.07914      4.06253      4.29289        -0.058485      0.051417     -0.251402
Co	      6.21593      8.20389      6.47259        -0.139795     -0.082413     -0.078299
Co	      6.27368      6.12129      8.55090        -0.368229      0.067603      0.026124
Ni	      6.28479      4.12350      6.34542         0.033733      0.000356      0.182466
O	      1.96820      2.02545      2.08381        -0.521552      0.029826      0.031380
O	      4.09097      3.99739      2.34548        -0.036759     -0.037408      0.021204
O	      4.09524      2.18327      4.22630        -0.085626      0.056892     -0.395697
O	      5.97148      4.11158      4.35761        -0.002646      0.018415     -0.094174
O	      6.24555      2.05233      6.43549        -0.072322     -0.099402      0.085762
O	      8.29521      4.02941      6.32236         0.132529      0.108723      0.024755
O	      2.09514      4.06563      4.54215         0.040710      0.081427      0.058009
O	      4.16978      6.14015      4.19142        -0.045004     -0.252480     -0.081937
O	      4.04831      4.13501      6.36680         0.042341     -0.081094     -0.076903
O	      6.24860      6.21044      6.69774         0.020684      0.172047      0.133962
O	      6.25533      4.13398      8.47990        -0.008692     -0.066233     -0.059091
O	      8.48919      6.15498      8.53284         0.048962     -0.121630     -0.019642
O	      2.06124      6.04713      6.43264        -0.027085     -0.108389     -0.093242
O	      4.27678      8.18343      6.46224        -0.076882     -0.093234      0.469545
O	      4.11320      6.26343      8.61150         0.252800     -0.303263     -0.017278
O	      6.18482      8.12721      8.48390         0.178372     -0.130806     -0.091922
O	      6.27882      5.97662     10.42572         0.185679      0.079668     -0.116470
O	      8.43670      8.16028     10.63111         0.043770     -0.081353      0.013274
