# total energy = -221.28291610 eV
 
CRYSTAL
PRIMVEC
-0.060618 6.180124 6.247297 
6.208569 0.000751 6.185872 
4.160522 4.100854 -0.020630 
PRIMCOORD
36 1
Li	      6.10811      6.18459     12.35402         0.029785     -0.039018     -0.046527
Li	      2.14924      6.06350      8.18928         0.017390     -0.189279     -0.092869
Li	      4.15139      6.06033     10.30619         0.084590      0.061814     -0.065715
Li	      6.21704      8.22722     10.34668         0.038918     -0.059598     -0.043171
Li	      4.09098      2.11083      6.15659         0.168472     -0.062568      0.109369
Li	     10.22009      8.31589     10.45164         0.052235      0.115733      0.151693
Li	      2.12856      4.08831      6.26997        -0.004247      0.129926      0.089274
Li	      4.11127      6.11964      6.27104        -0.160862      0.085336      0.142384
Li	      3.97727      4.24728      8.27988        -0.147420      0.016677     -0.140944
Sc	      4.12687      8.16508      8.28827         0.384366     -0.207905     -0.644718
Sc	      8.21772      6.23670     10.40767        -0.467063     -0.364932      0.168435
Cr	      6.19508      2.06914      8.26407         0.010060      0.056440     -0.455672
Co	      8.21733      8.26147     12.33878        -0.139225     -0.366598      0.117587
Co	      2.07044      4.10560      2.08023         0.055850      0.067158     -0.102603
Co	      6.19746      6.17328      4.20116         0.444840     -0.173019      0.978254
Co	      4.15096      4.10765      4.18697        -0.032175     -0.038287     -0.038979
Co	      6.20168      4.12005      6.18341         0.075055     -0.339002      0.111758
Co	      6.12089      6.14901      8.22854         0.123837      0.091982      0.003299
O	      1.99325      2.15801      2.26742        -0.073793      0.085623     -1.276864
O	      4.03287      4.17119      2.17815        -0.040616      0.013235      0.290057
O	      3.98093      2.15664      4.15650        -0.337666      0.289757      0.288159
O	      6.08868      4.23721      4.25240        -0.163858      0.095527      0.151796
O	      6.34492      2.15081      6.27155        -0.225945      0.283713     -0.265934
O	      8.18691      4.00593      6.32944        -0.091083     -0.016000     -0.135049
O	      2.16634      4.03678      4.08276         0.129252     -0.092347      0.041422
O	      4.21135      6.10233      4.08468         0.295586     -0.210540      0.102511
O	      4.26593      4.10710      6.08804         0.067491     -0.066993     -0.205127
O	      6.19920      6.04184      6.20291        -0.069140      0.165141     -0.475259
O	      6.34660      4.14612      8.14157         0.024585     -0.755369      0.002146
O	      8.35802      6.03411      8.23164         0.176365     -0.037422     -0.014000
O	      1.96138      6.28484      6.23402         0.063959      0.362143     -0.267796
O	      3.89758      8.27994      6.26201         0.079894      0.009852     -0.282323
O	      4.10527      6.16937      8.29604        -0.451605     -0.049640      0.072116
O	      6.14848      8.08126      8.22213         0.043370      0.979211     -0.097073
O	      6.20523      6.16259     10.15297         0.068498     -0.096257      0.438149
O	      8.24117      8.22925     10.33232        -0.029700      0.255507      1.392214
