# total energy = -201.74861948 eV
 
CRYSTAL
PRIMVEC
0.020652 6.234867 6.248226 
6.335064 -0.017275 6.286518 
4.202238 4.160790 0.009691 
PRIMCOORD
36 1
Li	      0.11390      6.17628      6.17144         0.034729     -0.004664      0.097260
Li	      6.39300     10.27204      8.37733        -0.017159     -0.016365     -0.035142
Li	      4.35169      8.29103      8.37599         0.034874      0.044233     -0.089133
Li	      6.29580      2.18088      4.10722         0.037902      0.082746     -0.118870
Li	      4.28769      4.13671      4.26868        -0.073745      0.008988      0.024621
Li	      6.24178      4.17180      6.14326        -0.039326     -0.019126      0.079555
Li	      2.19951      4.18333      6.26675         0.006762     -0.001789      0.042813
Li	      4.12106      6.22397      6.25044        -0.006111     -0.018133     -0.001578
Li	      4.12209      4.23574      8.26442        -0.021462     -0.019006     -0.058809
Sc	      2.14677      4.08969      2.07069        -0.105920     -0.010921      0.111112
Sc	      6.24988      6.35631      8.31133         0.117095      0.184625     -0.359861
Cr	      4.21671      6.15772      2.09116        -0.029443      0.152467     -0.355428
Cu	      8.39075      4.16165      4.19590         0.001715     -0.069315     -0.050669
Ni	      2.14069      8.28850      6.23569        -0.051191      0.036598      0.100809
Ni	      6.32950      6.18418      4.26529        -0.082132      0.168251     -0.066137
Ni	      4.23554      2.10583      6.23441         0.107269     -0.025211      0.201542
Ni	      4.18841      8.32143      4.22306         0.181856      0.159866      0.578599
Ni	      2.10108      6.24694      4.21680         0.069776     -0.087114     -0.088233
O	      4.26181      4.01688      6.22789         0.025861      0.200237     -0.063695
O	      1.99406      2.04983      2.06724        -0.026925     -0.029271      0.099462
O	      4.18787      4.30477      2.15775         0.069354      0.092130      0.063620
O	      4.18126      1.97119      4.26829         0.182624     -0.112243     -0.198370
O	      6.44369      4.21074      4.19516         0.097819     -0.223212      0.033624
O	      6.35284      2.13094      6.51310        -0.003698     -0.093566      0.113311
O	      8.45672      4.16260      6.25998         0.057404     -0.019722     -0.158097
O	      1.99393      4.13003      4.17264         0.510105      0.093686     -0.140767
O	      4.18979      6.27341      4.04461         0.003354      0.064384      0.038172
O	      6.40697      6.19888      6.26613        -0.118923     -0.020421      0.170368
O	      6.36225      4.04743      8.55703         0.105507     -0.163430     -0.844136
O	      8.51597      6.19555      8.39198         0.005188     -0.062071      0.060728
O	      2.11663      6.34703      6.14758        -0.023603     -0.116308      0.106416
O	      4.10739      8.29806      6.08509         0.020752     -0.047167      0.669888
O	      4.24396      6.23310      8.46175        -0.107378      0.000373      0.107956
O	      6.31027      8.30052      8.34246         0.022361     -0.137939      0.043993
O	      6.37627      6.17766     10.43307        -0.303123     -0.217471     -0.018459
O	      8.53221      8.34532     10.53175        -0.682167      0.225881     -0.096469
