# total energy = -201.69964602 eV
 
CRYSTAL
PRIMVEC
0.012812 6.210371 6.208363 
6.407756 0.021738 6.198372 
4.274020 4.135843 0.012574 
PRIMCOORD
36 1
Li	      2.24816      6.13691      8.21342         0.056834     -0.087344     -0.066701
Li	      4.38159      8.14719      8.26963         0.243811      0.037964      0.021486
Li	      6.43258      8.26650     10.23301        -0.015701      0.029833     -0.082520
Li	      8.53135      4.18180      8.23567        -0.027208      0.020044      0.078996
Li	      8.53282      6.19373      6.30051        -0.121980      0.051750      0.044313
Li	      4.28827      8.29292      4.20920         0.077945     -0.058556     -0.042293
Li	      6.37887      8.23679      6.34577         0.110257      0.034725      0.055879
Li	      4.22514      4.17780      8.18283        -0.184549     -0.029198     -0.006432
Li	      6.33536      6.32230      8.20693        -0.046150      0.028414     -0.150004
Sc	      4.29023      4.01843      4.06176        -0.206559      0.157014      0.063764
Sc	      8.48360      6.25146     10.31646         0.179311     -0.251742      0.098190
Cr	      6.39493      4.17890      6.24490        -0.618134      0.305603      0.461511
Cu	      4.27354      4.09711      0.06023         0.225802      0.045205      0.107055
Cu	      6.40215      2.11989      8.23727        -0.130606      0.162427      0.556962
Ni	      2.14239      2.08990      0.05237         0.528470     -0.283247      0.048493
Ni	      4.29694      6.21874     10.29670        -0.066508      0.149373     -0.837067
Ni	      2.12968      2.11380      4.09939        -0.051025      0.131231      0.050766
Ni	      4.31629      6.25775      6.29724         0.074415     -0.052743     -0.323059
O	      4.20044      8.34067      6.30418        -0.561634      0.415530     -0.109627
O	      6.46415      8.24993      8.30150        -0.013766     -0.055564      0.028616
O	      1.95904      2.10651      1.99826        -0.229189      0.034547      0.268114
O	      4.26245      4.23722      1.95413        -0.013821     -0.207023     -0.000662
O	      4.18537      2.00656      4.09029         0.224719     -0.452911      0.135963
O	      6.40071      4.17018      4.26124         0.258647     -0.251449     -0.042667
O	      6.44800      2.07988      6.26680         0.208540     -0.252327     -0.468270
O	      8.32177      4.10728      6.12488         0.118145      0.485300     -0.312198
O	      2.20903      4.15807      4.16554         0.096177      0.275827     -0.016204
O	      4.29299      6.21113      4.10973        -0.257310     -0.007084     -0.060005
O	      4.47178      4.20394      6.14568         0.200554     -0.305908     -0.205476
O	      6.31139      6.12779      6.18785         0.345198     -0.111073      0.031215
O	      6.43500      4.11241      8.10123         0.037189     -0.024558     -0.296320
O	      8.70195      6.28472      8.28375         0.154777     -0.018471     -0.010553
O	      2.35023      6.32080      6.22715        -0.237849     -0.223012     -0.274379
O	      4.31832      6.18286      8.29095         0.036829     -0.123217      1.527965
O	      6.40701      6.21306     10.54935        -0.392747      0.053259      0.025656
O	      8.55487      8.35065     10.52385        -0.002885      0.377380     -0.300507
