# total energy = -92.74715359 eV
 
CRYSTAL
PRIMVEC
-2.112964 4.332224 -2.112231 
2.079831 4.297927 2.078089 
2.098073 0.017772 -6.287269 
PRIMCOORD
16 1
Li	      0.03058      4.43841     -4.36200         0.081095     -0.040406      0.361234
Li	     -0.01127      4.41788     -0.12659        -0.102726      0.048856      0.135006
Li	      0.04244      2.22876     -2.20937         0.097493      0.192281     -0.105051
Li	      2.09860      2.22375     -4.26122        -0.086898      0.147293      0.087239
Mn	     -0.05069      0.10855     -0.05445         1.474682      0.099738     -0.545594
Mn	     -0.02366      6.64409     -2.17722         0.591336     -1.353559     -0.181526
Ni	      2.13792      6.64288     -4.33782        -0.369984     -0.532528      0.611330
Ni	      2.12324      4.42538     -2.15535        -0.578483      0.361768     -0.414147
O	     -0.01675      4.39606     -6.59376         0.027249      0.065649      1.172551
O	      1.99472      6.58375     -2.18068        -0.829658     -0.447496     -0.351174
O	      2.26628      4.48447     -4.31250        -0.602348      0.382874      0.182263
O	      2.11628      4.23799      0.05468        -0.316591      0.112364     -0.636352
O	      2.09317      2.37505     -2.08239         0.236375     -0.118056      0.943831
O	     -0.00592      6.81160     -0.10353         0.021023     -0.372369     -0.871664
O	     -0.08863      4.60830     -2.15220         0.112073      0.854989      0.033682
O	      0.06732      2.03594     -0.02680         0.245361      0.598602     -0.421627
