# total energy = -202.97584044 eV
 
CRYSTAL
PRIMVEC
0.026986 6.133164 6.252143 
6.470652 0.018023 6.260351 
4.325025 4.103680 0.002182 
PRIMCOORD
36 1
Li	      4.40059      8.12906      8.38339         0.004929      0.015007     -0.143201
Li	      6.39889      8.20080     10.29193         0.040123     -0.008227      0.008785
Li	      6.46229      2.13713      8.33459        -0.038790      0.008937     -0.062129
Li	      8.56854      4.17723      8.37709         0.023641      0.035082     -0.011512
Li	      8.53878      6.22247      6.36112         0.041164      0.019607      0.076887
Li	      6.40728      8.17610      6.34000        -0.066553      0.023983      0.078121
Li	      4.42331      6.11842      6.26868        -0.024986      0.014704      0.080109
Li	      4.29161      4.10922      8.19610        -0.016588     -0.038873      0.014238
Li	      6.57581      6.18101      8.28846         0.068779      0.048931      0.045730
Sc	      4.29177      4.19494      0.12875         0.086654     -0.018744      0.011165
Sc	      8.74149      6.18790     10.29300        -0.186079      0.111585      0.012816
Cr	      0.09964      4.11557      4.13518        -0.150871      0.398922      0.021538
Cu	      6.51802     10.18114      8.32799         0.018643      0.147974     -0.273651
Cu	      8.60733      4.11833      4.15134         0.187909     -0.298364      0.101343
Cu	      6.46583      4.08644      6.21954         0.147730     -0.245296      0.061323
Ni	      2.20191      2.07777      0.07333         0.062049     -0.013429      0.026999
Ni	      6.47306      6.09093      4.14874         0.247574      0.150424     -0.212585
Ni	      4.30565      4.00881      4.13916        -0.168767      0.102171      0.057283
O	      4.58751      4.07746      6.13509        -0.026324      0.005699      0.126415
O	      6.45232      5.94528      6.11198        -0.016145      0.165946      0.048911
O	      4.27281      6.12035      8.54735         0.004155      0.029736     -0.075018
O	      6.52717      8.31097      8.30051        -0.031232     -0.159234      0.037804
O	      2.13033      1.87947      2.14333        -0.077295     -0.083495      0.406639
O	      4.24992      4.07956      2.12710        -0.084409     -0.021480     -0.089138
O	      4.14295      1.88753      4.16349        -0.272312      0.104398      0.038362
O	      6.28438      4.06366      3.94676         0.153162      0.005311      0.177088
O	      6.57969      2.19845      6.25362        -0.197504     -0.018050     -0.057326
O	      8.52282      4.11129      6.10668        -0.144531      0.290618     -0.124515
O	      2.14965      4.06485      4.23623         0.070124     -0.184158      0.029056
O	      4.38328      6.27370      4.20324         0.088684     -0.151175      0.059251
O	      6.56145      4.16327      8.60216         0.055705     -0.024486      0.020830
O	      8.65791      6.18440      8.37771        -0.003250     -0.015752     -0.039014
O	      2.15410      6.18987      6.37276        -0.066912     -0.325152     -0.110113
O	      4.31337      8.25311      6.14536         0.159076     -0.043808     -0.035007
O	      6.67387      6.10064     10.52352         0.081442     -0.054389      0.000974
O	      8.88017      8.32598     10.51218         0.031006      0.025080     -0.308459
