# total energy = -202.85664895 eV
 
CRYSTAL
PRIMVEC
-0.016243 6.125146 6.337013 
6.257758 0.019410 6.301794 
4.207080 4.095529 -0.022522 
PRIMCOORD
36 1
Li	      8.32264      2.10920      6.24113        -0.039654      0.047036      0.023402
Li	      6.30231      4.08177      2.17609         0.021612      0.004477     -0.006958
Li	      8.28143      4.03172      4.21873        -0.073905     -0.023040     -0.003050
Li	      6.36043      2.13823      4.23433         0.017429      0.003358      0.063942
Li	      8.29420      4.14562      8.32236         0.010666     -0.035294     -0.136716
Li	      4.21989      4.07777      4.28402         0.047173     -0.045201      0.013737
Li	      6.28276      4.03063      6.30165         0.065622     -0.013173     -0.039120
Li	      6.16827      4.14861     10.47260        -0.075819      0.006072     -0.041955
Li	      8.37152      8.18810      8.47508         0.030797      0.017174      0.044937
Sc	      4.20632      2.11238      2.13422        -0.161545      0.042593      0.251859
Sc	      6.24263      6.07793      4.16244         0.047811     -0.063143     -0.101835
Cr	      4.14323      6.09793      6.34096         0.058543     -0.013057     -0.105779
Cu	      6.24361      0.05008      6.27259         0.068015      0.029791     -0.118916
Cu	      4.19399      2.06723      6.31263         0.079568     -0.102867     -0.062551
Cu	      8.34290      6.16110     10.49443         0.150309      0.046081     -0.251061
Cu	      2.08674      4.09830      6.33483        -0.027464      0.045158      0.035192
Ni	      6.26022      2.10597      8.39578         0.023825      0.060621      0.070525
Ni	      6.28880      6.08176      8.43102         0.024634     -0.093854      0.074815
O	      8.33952      6.14280      8.34484         0.044667     -0.013388     -0.101283
O	      2.15175      6.07312      6.32265         0.043704     -0.010242      0.282138
O	      6.45605      6.16125     10.55862        -0.107334      0.016349      0.108710
O	      8.33702      8.02073     10.55656         0.059573      0.095358     -0.037983
O	      2.09112      2.08244      2.13471         0.103906      0.024627     -0.004238
O	      4.24118      4.16249      1.93189        -0.020875     -0.092187      0.064720
O	      4.11694      2.07126      4.20443        -0.029679      0.001793     -0.085029
O	      6.27653      4.12035      4.21385        -0.059790     -0.018537      0.004112
O	      6.16003      2.01147      6.37411         0.200933      0.075925     -0.153447
O	      8.49842      4.21519      6.22393        -0.094926     -0.023749     -0.002453
O	      2.07729      4.20671      4.31408        -0.033036      0.107950      0.189766
O	      4.07446      6.13597      4.24889        -0.037312     -0.013936      0.113406
O	      4.07257      4.08480      6.31296        -0.101512      0.046604      0.044901
O	      6.21929      6.18343      6.31087        -0.238292     -0.085157     -0.036026
O	      6.28396      4.14675      8.36607        -0.021150     -0.124234      0.034786
O	      4.23858      8.15573      6.34167         0.060257     -0.127406     -0.095484
O	      4.27991      6.12251      8.30590        -0.156677      0.016775      0.065900
O	      6.26665      8.05524      8.32781         0.119928      0.210724     -0.102961
