# total energy = -204.51833786 eV
 
CRYSTAL
PRIMVEC
0.024428 6.222061 6.402602 
6.220730 0.041937 6.384999 
4.155710 4.144961 0.019373 
PRIMCOORD
36 1
Li	      8.33010      8.33617     12.77451         0.036502     -0.035551     -0.099256
Li	      2.16618      6.28697      8.47476        -0.026458      0.029108     -0.060358
Li	      4.18643      6.24463     10.56242         0.064366     -0.085473      0.024936
Li	      4.20299      6.22866      2.24340         0.042896     -0.031533      0.012578
Li	      4.13174      4.25974      4.27368         0.024325     -0.022781      0.079759
Li	     10.35160      8.28316     10.65421        -0.044551      0.046947      0.062596
Li	      2.07111      4.22366      6.43527        -0.012206      0.031175      0.023130
Li	      4.17186      6.16349      6.40378        -0.078037      0.045568     -0.063637
Li	      4.22129      4.27043      8.51253         0.001924     -0.000114     -0.001795
Sc	      6.32282      8.34653     10.59477         0.200171     -0.146601      0.169686
Sc	      8.26480      6.29627      6.43957         0.022085      0.292630     -0.346935
Cr	      4.24932     10.26146      6.46679         0.018715     -0.044677     -0.207430
Cu	      4.13371      2.05200      2.18396        -0.012110      0.292419     -0.357344
Cu	      2.08264      4.12108      2.17522         0.270136     -0.047472     -0.003786
Cu	      6.16552      6.22060      4.25148        -0.120929      0.156572      0.228119
Cu	      6.20030      4.17820      6.39154        -0.059741     -0.187834     -0.149921
Cu	      6.17106      6.22285      8.53089        -0.108475      0.042962     -0.089453
Cu	      2.17780      6.19997      4.25763        -0.099497     -0.179766      0.384145
O	      6.30580      4.25308      8.36709        -0.043304      0.249365     -0.067887
O	      1.90465      6.25344      6.38656         0.397312     -0.111795      0.031401
O	      4.14327      8.46383      6.53444         0.034749     -0.286732      0.169441
O	      4.21422      6.32133      8.53013         0.346798     -0.208662      0.049482
O	      6.16912      8.23100      8.52524         0.096923     -0.193210      0.004694
O	      2.14319      2.14106      2.27675        -0.153115     -0.025948      0.127801
O	      4.12708      4.09380      2.00950        -0.056610      0.005446      0.517561
O	      4.15917      2.09130      4.26665        -0.060763      0.022754      0.179978
O	      6.25931      4.19301      4.37792         0.056815     -0.196825     -0.062477
O	      6.20174      2.03881      6.37713        -0.101070      0.012955      0.010147
O	      8.41810      4.16706      6.50190        -0.119899      0.098722      0.030774
O	      2.08876      4.21157      4.17706        -0.054676     -0.116674     -0.029757
O	      4.13557      6.24948      4.25973         0.182821      0.011844     -0.120348
O	      4.22414      4.17332      6.46233        -0.295714     -0.279525     -0.004302
O	      6.18237      6.17405      6.20595         0.074804      0.360614     -0.034337
O	      8.20183      6.17171      8.54696        -0.277646      0.030952      0.158709
O	      6.29270      6.24139     10.88890        -0.016267     -0.017135     -0.475669
O	      8.34932      8.17084     10.63479        -0.130271      0.488272     -0.090247
