# total energy = -210.38882710 eV
 
CRYSTAL
PRIMVEC
-0.012999 6.277792 6.234618 
6.205401 -0.000381 6.221773 
4.136916 4.176450 -0.000019 
PRIMCOORD
36 1
Li	      8.23806      8.36397     12.33159         0.025791     -0.001558     -0.056830
Li	      8.31513     10.39871     10.43670         0.020246     -0.098689     -0.009978
Li	      6.19724      6.31724      4.21726         0.018709      0.039369     -0.002545
Li	      4.11646      4.16359      4.22545        -0.002900     -0.013129      0.003860
Li	      4.12261      2.10739      6.14148        -0.030150     -0.002374     -0.008738
Li	     10.27080      8.37969     10.43332        -0.102590      0.040923     -0.024961
Li	      8.22591      6.35135     10.34817        -0.005671      0.108218     -0.060082
Li	      8.25537      8.34742      8.38909         0.036569     -0.003937      0.069859
Li	      6.19170      6.30721      8.36739        -0.048301      0.016178      0.026403
Sc	      4.14192      8.32009      8.36628        -0.023030     -0.070966      0.010714
Sc	      2.02221      4.24829      2.21198        -0.061087      0.123908      0.183952
Cr	      6.21226      4.15935      6.15678        -0.114631      0.060707      0.073802
Fe	      4.13864      6.28758      6.07464        -0.075605      0.014551      0.032199
Co	      4.11566      6.28251      2.11705        -0.256042      0.139041      0.118239
Cu	      2.07708      6.26366      8.29985         0.025180      0.008088      0.030127
Ni	      6.17164      6.28757     12.35087        -0.015915     -0.058345     -0.007619
Ni	      6.23351      8.32049     10.37582         0.005060     -0.024138     -0.020476
Ni	      2.12467      4.14073      6.14730         0.054884     -0.023811      0.048272
O	      8.09071      8.36117     10.40866         0.203341     -0.005263     -0.019874
O	      1.95820      2.03504      2.14192        -0.052423      0.056461      0.003860
O	      4.17295      4.27519      2.00179        -0.072326      0.051882      0.092241
O	      4.29623      2.08695      4.12693        -0.131512     -0.004902     -0.049944
O	      6.23369      4.01401      4.26911         0.000624      0.116049      0.087651
O	      6.19931      2.13742      6.37675         0.045708      0.060869      0.202035
O	      8.12914      4.17899      6.29470        -0.091115     -0.002175      0.053502
O	      2.07867      4.16259      4.16992         0.019319     -0.009352     -0.262961
O	      4.12773      6.28128      4.09932         0.051019     -0.017852     -0.357556
O	      4.25899      4.27239      6.20044         0.196694     -0.109264      0.007568
O	      6.13814      6.17967      6.23298         0.105446     -0.136127     -0.005016
O	      6.17328      4.05523      8.19110         0.070829     -0.112544     -0.034282
O	      8.46784      6.28527      8.31353         0.224336     -0.091721     -0.005566
O	      2.08440      6.22214      6.29345         0.031588      0.111013     -0.069300
O	      4.15041      8.33873      6.22322        -0.107967     -0.008823      0.043984
O	      4.03607      6.29554      8.17199         0.128633      0.049685      0.049592
O	      6.19851      8.44897      8.25481        -0.045587     -0.074116     -0.004172
O	      6.19742      6.41332     10.37870        -0.027125     -0.127857     -0.137957
