# total energy = -211.61082962 eV
 
CRYSTAL
PRIMVEC
0.056054 6.332092 6.155219 
6.358569 0.068214 6.142910 
4.272707 4.246299 0.011829 
PRIMCOORD
36 1
Li	      0.19869      6.45675      6.13941         0.118137      0.042907      0.147489
Li	      2.01686      1.99622      0.02808        -0.050222     -0.181187      0.007933
Li	      2.16491      6.33614      8.14009        -0.157032      0.164182     -0.061970
Li	      6.40752      2.21092      4.15573         0.022490      0.082814      0.110208
Li	      4.30832      6.24831      2.02116         0.117406     -0.112040      0.002165
Li	      4.27259      4.30489      4.10715        -0.078166      0.038986      0.059735
Li	      2.23964      6.35135      4.21343         0.139351     -0.066566      0.126918
Li	      4.11097      6.30250      6.13640        -0.091571     -0.039818     -0.142687
Li	      8.46185      8.53493      8.17971         0.062159     -0.051783     -0.036315
Sc	      4.39759      8.49656      8.12754        -0.494084      0.572866     -0.271707
Sc	      6.31685      6.31389      4.12905        -0.130476      0.267819     -0.110501
Cr	     10.56604      8.54224     10.27825         0.694032     -0.373069      0.710971
Fe	      8.59565      4.34096      8.15775         0.080348     -0.376351      0.188060
Co	      6.42478      6.39452      8.22545         0.005722      0.193555      0.057163
Cu	      8.57280     10.59117     10.26763        -0.321786     -0.112039      0.390030
Cu	      4.31116      2.19017      6.15047         0.145044      0.159034     -0.191906
Ni	      6.34239      4.21401      6.17737        -0.064409      0.047701     -0.051257
Ni	      2.23590      4.30375      6.15326         0.073071      0.135525     -0.427822
O	      6.27221      2.23307      6.18240         0.047724     -0.330544      0.050711
O	      2.18610      6.23624      6.19541        -0.034893      0.650481      0.072004
O	      2.20173      2.22463      2.03817         0.069690     -0.094509      0.128856
O	      4.16107      4.22554      2.10222         0.220507     -0.104238     -0.012686
O	      4.21865      2.05947      4.11586         0.051600      0.067011     -0.022471
O	      6.48666      4.27346      4.12260         0.040218     -0.088336     -0.313343
O	      8.41935      4.38608      6.18156         0.235203     -0.112122     -0.267920
O	      2.00698      4.22867      4.06331        -0.100093     -0.138658     -0.291955
O	      4.29152      6.50075      4.08220         0.029570     -0.054609     -0.087698
O	      4.28651      4.17131      6.11597         0.111774      0.033211      0.055800
O	      6.48537      6.43157      6.25926        -0.129846     -0.238764      0.467903
O	      6.48188      4.44794      8.29511        -0.213982      0.395556     -0.253274
O	      8.36281      6.34283      8.15935        -0.458544      0.267475      0.134435
O	      4.42290      8.50822      6.02989        -0.274533     -0.082110      0.117969
O	      4.47261      6.37890      8.24279         0.551384     -0.100699     -0.200643
O	      6.45573      8.34527      8.18663         0.025574     -0.708197      0.503617
O	      6.31956      6.30653     10.14292         0.200537      0.242141     -0.425178
O	      8.72960      8.59612     10.29385        -0.441903      0.004375     -0.162633
