# total energy = -211.06110414 eV
 
CRYSTAL
PRIMVEC
0.017859 6.294441 6.360058 
6.188261 -0.023349 6.401070 
4.120295 4.218227 -0.010203 
PRIMCOORD
36 1
Li	      4.24831     10.42784      6.38702        -0.051467      0.023472     -0.057000
Li	      2.06322      2.05496      0.10649        -0.030478      0.004307     -0.051131
Li	      1.97367      0.16068      2.02151         0.058722     -0.060188      0.005359
Li	      4.06851      2.20287      2.00184         0.029212     -0.014636      0.006789
Li	      8.25996      4.08689      8.40029        -0.006436      0.061667     -0.052226
Li	      2.01336      2.19810      4.03406         0.044905      0.017443     -0.026476
Li	      6.27218      4.19359      6.37202        -0.023903     -0.028215     -0.040918
Li	      2.03437      6.25350      4.44693         0.009022      0.049717      0.082165
Li	      1.98166      4.31379      6.35641         0.052204     -0.006192     -0.008425
Sc	      4.07906      6.41776      6.37628        -0.098139      0.026815      0.167630
Sc	      8.24001      8.33823      8.44949        -0.110923      0.073458     -0.006897
Cr	      4.03322      4.22036      4.19702        -0.089373     -0.037217      0.094804
Fe	      8.20509      4.21399      4.31496        -0.049664      0.006383     -0.171586
Co	      6.16319      2.09732      4.29697         0.077098      0.034813     -0.124348
Cu	      8.23862      6.26361      6.35220        -0.004978      0.035342     -0.056339
Cu	      6.23100      6.24908      8.51888         0.019259      0.043710      0.056780
Cu	      0.08566      2.06795      2.09418        -0.190302      0.123730      0.010492
Ni	      0.12423      4.18775      4.28981        -0.077731     -0.020839      0.027477
O	      2.20489      4.18421      4.29888         0.210653      0.022470      0.014711
O	      8.38020      6.25796      8.36353         0.297408     -0.074092      0.071567
O	      1.96421      2.12988      2.10384         0.007803      0.011237      0.009845
O	      4.14137      4.25951      2.35946        -0.030788      0.105350      0.040797
O	      4.18945      2.10903      4.31872         0.040875      0.092679     -0.163164
O	      6.11720      3.98077      4.24741        -0.081138      0.015773      0.028080
O	      6.11073      2.05575      6.12562         0.062903     -0.010830      0.014881
O	      8.25073      4.28936      6.24218        -0.012227     -0.092494      0.078930
O	      4.14906      6.20619      4.31563         0.059263     -0.091183      0.062398
O	      4.17586      4.16698      6.31409        -0.003647      0.059354     -0.053459
O	      6.26880      6.29026      6.56248        -0.031999     -0.021078      0.041833
O	      6.21587      4.16451      8.65963         0.065127     -0.307281     -0.105118
O	      2.11099      6.28431      6.42458         0.042988      0.006002      0.000225
O	      4.13911      8.42472      6.25778         0.012023     -0.047373      0.151849
O	      4.17974      6.24360      8.55296        -0.219940     -0.048293      0.029388
O	      6.18589      8.29054      8.71550         0.020379      0.100647      0.005977
O	      6.15590      6.38390     10.53002         0.049360      0.036816     -0.017246
O	      8.14778      8.48669     10.59083        -0.046074     -0.091276     -0.067644
