# total energy = -210.86153831 eV
 
CRYSTAL
PRIMVEC
0.023416 6.255572 6.440804 
6.194873 0.001847 6.462766 
4.131327 4.186001 -0.000123 
PRIMCOORD
36 1
Li	      0.08220      6.21592      6.45768        -0.034230      0.018378      0.028805
Li	      2.10503      6.22893      8.56362        -0.008405      0.007092      0.012039
Li	      4.24460      8.28696      8.70164        -0.004973      0.010871      0.056909
Li	      4.19941      6.25102     10.61551        -0.011091     -0.001198     -0.029714
Li	      6.17561      8.43027     10.61997         0.023293      0.044380     -0.023678
Li	      4.23019      4.11988      4.22677        -0.036356      0.009171      0.081242
Li	      6.17449      4.17808      6.40580        -0.028656      0.054971     -0.066138
Li	      4.16870      6.25262      6.61857         0.035373     -0.064593     -0.047104
Li	      6.06322      6.34340      8.64998         0.017297     -0.024286      0.021717
Sc	      2.11857      4.15262      2.16352        -0.038545      0.060528      0.078968
Sc	      4.18356      2.08920      6.31613        -0.065373     -0.066280     -0.139868
Cr	      2.06700      2.10164      0.01469         0.161422     -0.056157      0.119671
Fe	      8.20815      6.28366     10.84323         0.033347      0.083246     -0.056327
Co	      6.23418      6.03856      4.33050        -0.038226     -0.189720      0.040914
Cu	      4.14665      6.24667      2.15834         0.126527     -0.174512     -0.146426
Cu	     10.30895      8.38555     10.79755        -0.215873      0.162573      0.052341
Cu	      6.19884      8.36728      6.47626         0.062923      0.093901      0.057530
Cu	      4.11677      4.27065      8.56966         0.034987     -0.169519     -0.184962
O	      4.15065      8.36167      6.35644        -0.217078      0.013526      0.016778
O	      4.12594      6.14112      8.62793         0.036674     -0.010172     -0.045206
O	      6.36146      8.38450      8.46638        -0.123155     -0.067116      0.037931
O	      6.27993      6.19360     10.71671         0.033421      0.019068      0.028141
O	      2.03490      2.08949      2.11035         0.084471     -0.015250     -0.052974
O	      4.11134      4.25515      2.18844        -0.007812     -0.057637     -0.004595
O	      4.09736      2.09589      4.29333         0.011341     -0.092548      0.014231
O	      6.17616      4.27756      4.35098         0.080341      0.071544     -0.037900
O	      6.25505      2.10846      6.55766         0.050555      0.020381      0.044831
O	      8.22897      4.14964      6.57954        -0.009234     -0.031602      0.011731
O	      1.99161      4.19797      4.33064         0.071462     -0.094475     -0.123297
O	      4.16246      6.34829      4.16200        -0.011816      0.130133     -0.076528
O	      4.04778      4.14379      6.41434         0.128834      0.072932     -0.215684
O	      6.21385      6.36512      6.37754         0.010316     -0.167029     -0.041709
O	      6.05975      4.14257      8.71554         0.015426      0.027808      0.119418
O	      8.33304      6.30381      8.65925        -0.182012      0.308073     -0.046362
O	      2.11386      6.30023      6.33069        -0.018668      0.035069      0.184441
O	      8.30916      8.29607     10.91371         0.033493      0.038450      0.330835
