# total energy = -210.15272146 eV
 
CRYSTAL
PRIMVEC
-0.024335 6.306071 6.210362 
6.223351 0.003240 6.182849 
4.173028 4.209724 -0.022098 
PRIMCOORD
36 1
Li	      4.09001      8.29933      8.19593         0.070291      0.006271      0.012106
Li	      8.23759      4.25562      4.09339         0.195616     -0.043025     -0.053219
Li	      0.04550      2.12028      2.11939        -0.046660     -0.027743      0.037566
Li	      4.12040      4.33080      4.20477         0.002303      0.049390     -0.041280
Li	      6.23511      4.33391      6.21628        -0.150118      0.094529      0.065486
Li	      0.06512      4.11356      4.12474        -0.026251      0.093680     -0.053629
Li	      2.15744      6.24543      4.12976        -0.021284      0.027883     -0.028162
Li	      4.19547      6.29135      6.12751         0.047893     -0.126554     -0.009201
Li	      6.26351      6.25722      8.16553        -0.021312      0.023988      0.098921
Sc	      6.10871      2.17889      4.08678         0.032276     -0.583952     -0.249641
Sc	      4.28054      4.19735      8.31138        -0.010310      0.051816      0.089704
Cr	      6.22424      8.38167      6.14129         0.121404      0.121776      0.385968
Fe	      2.11928      8.44326      6.20023        -0.053336     -0.166427     -0.171584
Co	      6.19293      6.30185     12.36684         0.227688     -0.184763      0.667727
Ni	      2.06185      6.32833      8.25631        -0.356355     -0.061637     -0.138524
Ni	      8.24421      4.23961      8.30571         0.208696      0.063767      0.089688
Ni	      6.21484      6.29889      4.09451        -0.591783      0.193646     -0.108470
Ni	      8.27296      6.29847      6.20435        -0.007978      0.050465      0.043621
O	      4.32484      6.29951      4.10967        -0.111995      0.016400      0.044756
O	      2.11699      2.12704      1.98027         0.048874     -0.026872      0.069248
O	      4.26934      4.21391      1.78949        -0.058262      0.005146      0.118556
O	      4.03075      2.08004      4.26359         0.194242      0.009778     -0.053048
O	      6.18421      4.24907      3.99514         0.064563      0.133886      0.402802
O	      6.25696      2.04355      6.16393        -0.013862     -0.773336      0.144849
O	      8.35020      4.17563      6.23696         1.064604      0.040293     -0.178692
O	      2.09238      4.15368      4.18071         0.083271     -0.205414     -0.208917
O	      4.02318      4.11732      6.22532         0.077884      0.170083      0.030547
O	      6.23022      6.42893      6.12475         0.007662     -0.227450      0.088401
O	      6.23478      4.28855      8.25334        -0.008228     -0.093610     -0.086773
O	      8.31910      6.27846      8.14937         0.025127      0.101413      0.008158
O	      2.06177      6.27201      6.26967        -0.999106      0.078865     -0.259209
O	      4.16367      8.51138      6.15822        -0.037282      0.912723     -0.022322
O	      3.97764      6.27164      8.27278         0.138205      0.024677     -0.084576
O	      6.20309      8.39713      8.20741         0.013506     -0.031862     -0.019699
O	      6.17944      6.35375     10.58914        -0.118293      0.182056     -0.610515
O	      8.21431      8.36315     10.40418         0.008312      0.100113     -0.020643
