# total energy = -92.47445028 eV
 
CRYSTAL
PRIMVEC
-2.123271 4.353357 -2.122534 
2.089977 4.318892 2.088226 
2.108307 0.017858 -6.317939 
PRIMCOORD
16 1
Li	      0.03088      4.48182     -4.40465         0.090795     -0.055058      0.430589
Li	     -0.00110      4.46118     -0.15865        -0.116473      0.058897      0.155120
Li	      0.04286      2.25056     -2.23098         0.116578      0.226653     -0.123848
Li	      2.11913      2.24549     -4.30290        -0.098567      0.171600      0.099505
Mn	     -0.06154      0.13085     -0.06534         1.737855      0.110770     -0.689865
Mn	     -0.02390      6.70907     -2.19851         0.668827     -1.558265     -0.202114
Ni	      2.15882      6.70784     -4.38024        -0.417705     -0.607821      0.705016
Ni	      2.14401      4.46865     -2.17644        -0.657795      0.400754     -0.484195
O	     -0.01692      4.43906     -6.65824         0.002265      0.056144      1.447756
O	     -0.07575      2.32925     -4.29024        -0.923877     -0.525788     -0.412529
O	      2.28844      4.52832     -4.35468        -0.747564      0.449063      0.217487
O	      2.13698      4.27944      0.05522        -0.371419      0.148283     -0.763168
O	      2.10329      2.41951     -2.11310         0.281595     -0.112889      1.058955
O	     -0.00598      6.87822     -0.10454         0.019078     -0.447657     -0.980580
O	     -0.08950      4.65336     -2.17325         0.174914      0.971096      0.040244
O	      0.06798      2.05586     -0.02707         0.241492      0.714220     -0.498373
