# total energy = -213.91544031 eV
 
CRYSTAL
PRIMVEC
0.011622 6.319582 6.291228 
6.272594 0.009800 6.293478 
4.200293 4.233509 -0.012165 
PRIMCOORD
36 1
Li	      4.17971      4.24349      0.09929        -0.085598      0.049263     -0.016017
Li	      2.03318      0.04033      2.04148         0.009648     -0.004797     -0.031567
Li	      0.05713      2.15281      2.14030        -0.019913      0.026534      0.033431
Li	      2.16226      4.09760      2.00967        -0.083721      0.052419     -0.167690
Li	      6.18938      6.49337      4.23137        -0.048928     -0.006296      0.059351
Li	      6.32650      4.12119      6.30753         0.050252      0.033046      0.066416
Li	      4.31389      8.23071      4.20745         0.075975     -0.049223     -0.076052
Li	      2.19498      6.30154      4.29352         0.028528     -0.083261     -0.109420
Li	      4.15507      6.42888      6.12901         0.133328     -0.123717      0.020643
Sc	      4.19703      4.32570      4.10395        -0.040217      0.203583      0.247902
Sc	      6.32655      6.28065      8.40482         0.326757     -0.202455     -0.414393
Cr	      8.34128      4.26542      4.25464         0.011747      0.170093      0.579237
Fe	      4.24717      4.21926      8.37512         0.046703     -0.265132     -0.449955
Co	      4.20866      2.11455      6.29837        -0.158636      0.734244      0.213544
Co	      2.02598      4.34803      6.21736         0.185563     -0.336381     -0.059665
Cu	      2.20793      8.31491      6.27072        -0.103446     -0.020343      0.057962
Cu	      6.28956      2.13332      4.23528        -0.181351      0.076230      0.280450
Ni	      4.13882      8.44599      8.30847        -0.005289     -0.054518      0.119894
O	      6.06850      2.12679      6.25369         0.319692     -0.103221     -0.522010
O	      2.11667      6.14189      6.29032         0.009607      0.057129     -0.094441
O	      2.14571      2.06964      1.85288        -0.040499     -0.082225      0.165658
O	      4.17128      4.10033      2.11618         0.066787      0.078542      0.030129
O	      4.15125      2.05520      4.30877         0.168682     -0.084800     -0.126167
O	      6.34973      4.06360      4.24160        -0.131252     -0.067716     -0.130465
O	      8.30940      4.49665      6.23144        -0.020401     -0.903230     -0.298762
O	      2.10752      4.25645      4.27539        -0.073493      0.035926      0.160171
O	      4.24703      6.27851      4.18126         0.012014     -0.084821     -0.084255
O	      4.15886      4.08632      6.33705        -0.123997      0.362344      0.006605
O	      6.44956      6.55218      6.29506        -0.128690      0.175843      0.173031
O	      6.16781      4.25967      8.38612         0.034834      0.137149      0.169059
O	      8.40200      6.44099      8.23781        -0.181917      0.042382      0.117450
O	      4.25013      8.40304      6.30188         0.125210      0.012430     -0.243553
O	      4.20988      6.26937      8.50336        -0.037601      0.087037      0.045991
O	      6.33550      8.43577      8.35517        -0.050003      0.088249      0.254217
O	      6.18234      6.53148     10.47979         0.070890      0.046779      0.057710
O	      8.37333      8.54066     10.56402        -0.161265      0.002916     -0.034441
