# total energy = -214.45148233 eV
 
CRYSTAL
PRIMVEC
-0.012557 6.192430 6.515521 
6.159084 0.040280 6.463548 
4.152822 4.140312 -0.020146 
PRIMCOORD
36 1
Li	      2.16134      8.18161      6.49109        -0.283377      0.136675     -0.243248
Li	      2.14235      6.33929      8.61736         0.103153     -0.127073      0.165128
Li	      4.14072      8.20314      8.63844         0.179473     -0.103296      0.201828
Li	      4.18541      6.20586      2.30158        -0.112714      0.110706     -0.222189
Li	      4.03263      2.16239      6.43923         0.175336     -0.094933     -0.038309
Li	      4.07627      8.14977      4.46982        -0.233751      0.126042     -0.066568
Li	      2.09465      6.21530      4.38392        -0.168111      0.251304     -0.083253
Li	      4.02389      6.28673      6.42381         0.058185     -0.007890      0.032048
Li	      8.22219      8.21826      8.85324        -0.107862      0.015757      0.159430
Sc	      4.24169      4.10138      0.12556        -0.288708      0.815522     -0.510160
Sc	      6.07075      4.21448      6.44875         0.423551     -0.762489      0.196248
Cr	      8.22770      4.20513      8.59504        -0.382837      0.282894     -0.240346
Fe	      4.11600      6.18138     10.79249         0.158964     -0.288477     -0.031482
Co	      6.16742      8.24726     10.84054         0.485098     -0.353636      0.009497
Co	      4.13451      4.16452      4.20019        -0.250129     -0.082189      0.046838
Cu	      1.95571      2.18098      4.21464         0.139587     -0.157454     -0.019960
Cu	      2.06945      4.14535      6.44891        -0.061521     -0.037353      0.249996
Cu	      6.17294      6.21850      8.70979        -0.030619      0.203355      0.074450
O	      8.04151      6.20597      8.57057         0.175398     -0.174953     -0.056760
O	      4.28679      6.16847      8.84218        -0.198399      0.076176     -0.177476
O	      6.20951      8.07355      8.98625        -0.085224      0.112520     -0.573032
O	      2.03472      2.18089      2.33268         0.016269     -0.044565     -0.240138
O	      4.07644      4.18900      2.21608         0.045486     -0.045719      0.101776
O	      4.26694      2.12413      4.27212        -0.776187      0.184083     -0.015213
O	      6.17116      4.02915      4.24897        -0.068201     -0.002527      0.064150
O	      6.16118      2.14140      6.26590        -0.052520      0.121129      0.751805
O	      8.20398      4.18097      6.49397         0.042700     -0.046628      0.165759
O	      2.24081      4.17551      4.10665         0.402645      0.211334      0.042770
O	      4.16042      6.04756      4.21995         0.004959     -0.162362      0.089560
O	      4.04500      4.15913      6.16153        -0.605130      0.111587     -0.138512
O	      6.16601      6.29643      6.08474        -0.104619      0.606294      0.147268
O	      6.17793      4.29673      8.54800         0.184146     -0.196612     -0.159259
O	      2.08905      6.12265      6.64069         0.111363     -0.482851     -0.096477
O	      4.22350      8.27500      6.49578         0.510128     -0.238157      0.037350
O	      6.08347      6.32148     11.01220         0.025195     -0.191460      0.287835
O	      8.09454      8.33920     10.88198         0.568273      0.235247      0.088646
