# total energy = -213.84781513 eV
 
CRYSTAL
PRIMVEC
0.032824 6.181835 6.308099 
6.289583 0.027994 6.312459 
4.189037 4.120199 0.023010 
PRIMCOORD
36 1
Li	      8.37117      2.09908      6.30920        -0.031110      0.016160     -0.040004
Li	      4.25750      8.15086      8.40645         0.002932      0.006611     -0.003841
Li	      4.22941      6.21321     10.40205         0.004267     -0.051226     -0.087998
Li	      6.32649      2.08079      8.30048        -0.011721      0.040535     -0.042329
Li	      8.42037      6.12288      6.37581        -0.006643     -0.010993     -0.002722
Li	      6.41769      4.13564      6.34354         0.058341     -0.015879      0.015180
Li	      6.20801      8.26003      6.44508         0.024465     -0.028471      0.030216
Li	      4.24070      6.27291      6.37407         0.051120      0.036866     -0.012517
Li	      6.25572      6.23136      8.37063        -0.015136     -0.045618     -0.022472
Sc	      4.22442      4.18171      4.31980         0.046037      0.020318      0.127587
Sc	      4.22896      4.16805      8.30671         0.062020      0.005184     -0.022522
Cr	      2.18350      2.07130      4.28069         0.014654     -0.062440      0.291353
Fe	      6.33516      8.17303     10.56383        -0.073695      0.152672     -0.087409
Co	      2.13328      4.13373      2.13541        -0.137301      0.049846     -0.275075
Co	     10.47552      8.31670     10.57284        -0.076174      0.117719     -0.153223
Ni	     10.43364      4.14131      6.35495        -0.052084      0.054189      0.065519
Ni	      2.16812      6.21489      8.32301        -0.041507      0.050761     -0.022569
Ni	      2.10319      6.19628      4.27316         0.058261     -0.044289      0.033571
O	      2.09190      2.17443      2.30034         0.029935      0.107625     -0.019091
O	      4.04967      4.11996      2.13596        -0.083373     -0.014146      0.111807
O	      4.13002      2.07872      4.20324        -0.030542     -0.014840     -0.044609
O	      6.29048      4.16435      4.15523         0.024621      0.054472      0.034709
O	      6.26992      1.96291      6.18734        -0.012847      0.166162      0.138587
O	      8.49889      4.12067      6.55911        -0.153712     -0.016582      0.119513
O	      2.13139      4.09335      4.11094        -0.075529     -0.102044      0.034489
O	      4.30753      6.28252      4.26805         0.026088      0.066576      0.054047
O	      4.21561      4.09938      6.30580        -0.025677      0.025105     -0.031950
O	      6.30915      6.18186      6.10251         0.013257      0.025894     -0.151700
O	      6.42685      4.14956      8.55753         0.142185     -0.027036      0.166900
O	      8.41259      6.05619      8.51527         0.089999     -0.101467     -0.068917
O	      1.90929      6.18873      6.32407         0.115758     -0.018500      0.007459
O	      4.19584      8.38184      6.11755        -0.048977     -0.241431      0.028269
O	      4.18304      6.17464      8.33296         0.104042      0.038332      0.015587
O	      6.32779      8.27891      8.54629        -0.035962     -0.119676     -0.066992
O	      6.31038      6.18119     10.52882        -0.101429     -0.219772     -0.073197
O	      8.36068      8.23729     10.48458         0.145438      0.099385     -0.045655
