# total energy = -215.13685372 eV
 
CRYSTAL
PRIMVEC
0.003338 6.207567 6.143115 
6.450521 0.024313 6.120676 
4.322425 4.144476 -0.005079 
PRIMCOORD
36 1
Li	      0.08051      6.16619      6.13848         0.030665      0.021967     -0.017982
Li	      2.19548      8.21787      6.05731        -0.048911      0.037857      0.069855
Li	      2.14973      6.25195      8.11951        -0.079435      0.048935      0.046251
Li	      4.29899      0.07238      4.07373         0.026870     -0.073250      0.043730
Li	      8.53738      6.20758      6.04486         0.116462     -0.011578      0.069481
Li	      6.48974      4.21799      6.02634         0.020248     -0.119182     -0.012889
Li	      2.12416      6.25898      4.26811        -0.002107     -0.090649      0.022415
Li	      2.14645      4.19512      6.12877         0.041218      0.071326     -0.071209
Li	      4.27901      6.23317      6.07616        -0.094225     -0.002053     -0.010835
Sc	     10.75084      6.15743      8.08051        -0.017342      0.050012     -0.196404
Sc	      4.28052      4.27449      8.07723         0.168192     -0.139879     -0.006809
Cr	      6.47885      2.08153      4.13452         0.202131      0.201406     -0.146877
Fe	      8.59285      4.14542      8.13788        -0.116892     -0.015405      0.441739
Co	      6.45593      6.17190      4.18396        -0.104741     -0.272619      1.235615
Co	      4.23935      8.30777      4.29392         0.081284      0.023918     -0.023569
Co	      6.50708      6.24125      8.14874         0.194758     -0.094090     -0.121051
Cu	      4.34953      8.26401      8.10593        -0.011111      0.064496     -0.162208
Ni	      4.33484      4.13089      4.17536        -0.101245      0.107680     -0.052631
O	      2.14960      6.21835      6.21913         0.013934     -0.048156      0.025660
O	      2.04903      2.11390      2.25624         0.018179     -0.073563     -0.605022
O	      4.15793      4.08685      2.09489         0.101649     -0.107421     -0.085705
O	      4.43868      2.09431      3.99616        -0.186766     -0.193851     -0.025513
O	      6.43211      4.16423      4.02981         0.087514     -0.388722     -0.011110
O	      6.47708      2.03105      6.07293        -0.027776      0.014374      0.096025
O	      8.57570      4.08854      6.38627        -0.053133      0.023471     -0.619324
O	      2.10109      4.00787      3.99217        -0.073110      0.620387     -0.080446
O	      4.31175      6.27580      4.05230         0.274354      0.044187      0.146712
O	      4.29878      4.16217      6.11633         0.005297      0.000452      0.237628
O	      6.52882      6.23037      6.05370        -0.101361     -0.025100     -0.141403
O	      6.46816      4.23153      8.26692        -0.167741      0.144721      0.001669
O	      8.54701      6.15573      8.18491        -0.001824      0.247721     -0.070696
O	      4.30206      8.33209      6.06803         0.067189     -0.079858      0.085203
O	      4.59070      6.30991      8.10525         0.010364      0.177981      0.022424
O	      6.57691      8.16814      8.24666        -0.278233     -0.083241     -0.042244
O	      6.48110      6.25871     10.07102        -0.016060     -0.100154     -0.016003
O	      8.58698      8.35996     10.19777         0.021705      0.017881     -0.024477
