# total energy = -216.36432086 eV
 
CRYSTAL
PRIMVEC
-0.048922 6.331034 6.150857 
6.297172 -0.014860 6.115988 
4.195285 4.194924 -0.006540 
PRIMCOORD
36 1
Li	      6.17012      0.05879      6.03914        -0.070785      0.057521      0.038895
Li	      6.30272      4.20658      2.06250         0.063396     -0.032045      0.044486
Li	      4.31546      6.17775     10.20739        -0.024410      0.071547     -0.051669
Li	      6.25976      8.39317     10.16029        -0.065753      0.056077     -0.083124
Li	      2.11786      4.16262      2.07979         0.048386     -0.068541     -0.021639
Li	      2.06339      2.11888      4.00944         0.069886     -0.023664     -0.012632
Li	      6.16541      4.32241     10.16145         0.069014     -0.048155     -0.037367
Li	      4.21752      4.32945      8.31153         0.016724      0.060626     -0.072793
Li	      6.13825      6.31299      8.28669        -0.033489      0.116177     -0.017144
Sc	      8.26704      6.36001     10.09755        -0.060744     -0.109615      0.128439
Sc	      6.23340      8.38716      6.15022        -0.113209     -0.055815      0.252264
Cr	      8.36110      6.27975      6.12639        -0.109376     -0.127728     -0.153733
Fe	      6.32887      4.17796      6.13235        -0.090669      0.206734     -0.500695
Co	      4.18637      2.02162      2.12661        -0.115754     -0.284425     -0.348003
Co	      4.19488      4.22376      4.09134         0.196788     -0.178758      0.007320
Co	      4.18835      6.29065      6.16015        -0.037417      0.033466      0.180229
Cu	      8.40099      8.43639     12.21259         0.068129     -0.026741      0.282580
Cu	      0.04079      2.08142      2.07027        -0.010229     -0.080492      0.170910
O	      6.31184      4.02942      7.99085        -0.049761     -0.291698      0.909039
O	      4.14164      6.34793      8.05410         0.054111     -0.014179     -0.061925
O	      2.31671      2.12242      1.90427        -0.014209      0.119265     -0.215001
O	      4.24877      4.30456      2.19297        -0.082932      0.401587     -0.186512
O	      4.13597      2.29752      4.10638         0.014579      0.078087      0.030758
O	      6.11652      4.19604      4.27572        -0.110365      0.011673     -0.419235
O	      6.16186      2.14890      6.17182         0.002157     -0.235149      0.163550
O	      8.26458      4.32859      6.04932         0.311343      0.005758      0.022657
O	      2.22694      4.23515      4.09760        -0.056315      0.054663     -0.069473
O	      4.21223      6.16401      4.15179        -0.018139      0.166736     -0.227484
O	      4.20727      4.22717      6.08193        -0.128160      0.010340      0.068708
O	      6.24806      6.23236      6.18148        -0.049418      0.137992     -0.019313
O	      8.33934      6.35175      8.06244        -0.030365      0.005666     -0.160475
O	      2.26906      6.25653      6.12429         0.108542      0.087573     -0.046028
O	      4.18331      8.18982      6.13831         0.045799     -0.114532      0.220911
O	      5.99154      8.45312      8.19643         0.150370     -0.021104      0.135950
O	      6.30382      6.25760     10.25647         0.020454      0.009790      0.053310
O	      8.35618      8.40829     10.28945         0.031823      0.021360     -0.005762
