# total energy = -207.71729712 eV
 
CRYSTAL
PRIMVEC
0.003613 6.301003 6.287573 
6.293445 0.014090 6.277141 
4.193667 4.191711 0.011358 
PRIMCOORD
36 1
Li	      8.33219      2.08372      6.27967         0.022869     -0.141546      0.058174
Li	      2.05127      0.08497      2.01269        -0.045749      0.103910     -0.056543
Li	      0.08719      2.09938      2.05469         0.184458     -0.067784     -0.007208
Li	      8.29669      4.25624      8.37127         0.021186     -0.013363      0.094254
Li	      8.41673      6.26647      6.37115         0.019758     -0.028752      0.022325
Li	      6.37290      4.16018      6.32826         0.037434      0.028715      0.060252
Li	      0.09151      4.11721      4.18576         0.002884     -0.021322     -0.056128
Li	      2.10086      6.25031      4.21529         0.007328     -0.049237     -0.012787
Li	      4.19334      6.35326      6.17420        -0.054442      0.097733     -0.065325
Sc	      4.19625      4.29859      4.20972        -0.062831      0.144934     -0.419390
Sc	      4.25473      4.15946      8.32110         0.141595      0.006478      0.217998
Cr	      8.38694      4.17015      4.30973        -0.006789     -0.001830      0.003441
Fe	      4.10592      2.11741      2.02355         0.040231     -0.075983      0.310542
Cu	      0.02344      0.01180      0.02486         0.002687      0.141141      0.046980
Ni	      6.29957      2.09360      4.26995        -0.098224      0.116139     -0.191858
Ni	      6.24737      6.32901      4.20791         0.170149     -0.001266     -0.019931
Ni	      2.07095      4.21827      6.25242         0.058284     -0.173035      0.089445
Ni	      6.33364      6.26609      8.35208        -0.298252      0.138564      0.127667
O	      2.01000      6.12931      6.28671        -0.063602      0.495197     -0.006621
O	      2.20893      2.06657      2.17570        -0.302062      0.022611     -0.061503
O	      4.21971      4.10292      2.06923        -0.008581      0.028158      0.288083
O	      4.19431      2.00486      4.12345         0.015376     -0.159251      0.160219
O	      6.37709      4.19825      4.26323        -0.034544     -0.042030      0.043944
O	      6.32775      2.00166      6.24042        -0.126825     -0.051499      0.249426
O	      8.45269      4.23339      6.13639         0.149103     -0.061395     -0.310659
O	      2.12815      4.15101      4.26372         0.187682      0.072264     -0.262296
O	      4.24391      6.29057      4.14430        -0.211492     -0.225822      0.008958
O	      4.10551      4.25276      6.27993         0.016709      0.038240     -0.012717
O	      6.27176      6.50259      6.26440        -0.026233     -0.460140     -0.056395
O	      6.28591      4.32668      8.30644        -0.143495     -0.023324      0.016144
O	      8.26527      6.31859      8.41449         0.056513      0.184365     -0.064852
O	      4.24555      8.44045      6.36647        -0.133630      0.141391     -0.391190
O	      4.29681      6.35648      8.52112         0.067684     -0.285991      0.208794
O	      6.23424      8.27624      8.40476         0.189085     -0.138479      0.090208
O	      6.17342      6.35362     10.53401         0.039197     -0.143119     -0.069871
O	      8.33579      8.57571     10.45333         0.186537      0.405332     -0.031583
