# total energy = -207.38285861 eV
 
CRYSTAL
PRIMVEC
0.045060 6.310905 6.314626 
6.208590 0.027514 6.332215 
4.141765 4.222062 0.015350 
PRIMCOORD
36 1
Li	      8.21878      2.21710      6.41425        -0.032554      0.039636     -0.006341
Li	      6.15823      4.28874      2.22344         0.071140     -0.062551      0.001263
Li	      8.21138      4.29896      4.31443         0.023858     -0.010289      0.009312
Li	      4.17303      6.33595      2.16345        -0.074059      0.028951     -0.093731
Li	      2.17169      4.08483      2.12806        -0.028343      0.019258     -0.080922
Li	      4.19654      4.20781      4.12485         0.058584     -0.081043     -0.047571
Li	      6.23183      4.19509      6.24197        -0.025171     -0.076287      0.010424
Li	      2.11796      6.24718      4.20701        -0.054694      0.014752     -0.024984
Li	      2.06861      4.20714      6.21420        -0.010001      0.026524      0.060108
Sc	      4.03754      6.30080      6.25227        -0.166408     -0.022404      0.456901
Sc	      6.27389      6.31242      8.46015        -0.164222      0.000711      0.112802
Cr	      8.31316      8.42070      8.48772        -0.141565      0.218021     -0.058053
Fe	      6.23173      0.09008      6.34285         0.299175      0.022527     -0.379547
Cu	      4.11284      2.19966      2.16282         0.411266     -0.090603     -0.112713
Cu	      4.17865      8.39753      4.23369        -0.021070      0.010521      0.029107
Ni	      6.20868      2.23461      4.26620         0.187311      0.192558      0.078580
Ni	      6.22986      6.29401      4.21349         0.221191     -0.404660     -0.240970
Ni	      4.17503      2.14324      6.28781         0.095516      0.102664      0.140113
O	      6.20984      4.32661      4.27600        -0.033949      0.240952      0.017648
O	      1.99422      4.02307      4.20363        -0.012765      0.158724      0.004434
O	      2.23067      2.08461      2.22448        -0.291130      0.052672      0.015184
O	      4.17035      4.16529      1.93240        -0.001183      0.016185      0.449828
O	      4.16952      2.16294      4.24866        -0.325261      0.063929     -0.269660
O	      6.22347      2.10091      6.23201         0.114689      0.020542      0.538309
O	      8.52715      4.31345      6.34589        -0.402966     -0.137200      0.092464
O	      4.16951      6.32667      4.22509         0.073125      0.077217     -0.230108
O	      4.11490      4.23538      6.54634        -0.031134      0.156222     -0.278511
O	      6.22300      6.31060      6.35620        -0.129827      0.041631     -0.087668
O	      6.13325      4.22833      8.52591         0.334629      0.027610     -0.113926
O	      8.31987      6.52788      8.39382         0.006577     -0.210667      0.173477
O	      1.97419      6.32954      6.26129         0.205388     -0.027012     -0.011597
O	      4.15019      8.44405      6.25856        -0.056161     -0.108975      0.166275
O	      4.18403      6.21065      8.36921        -0.032083      0.030954      0.033960
O	      6.24589      8.41515      8.57928        -0.049004     -0.092327     -0.364688
O	      6.28347      6.30625     10.60618         0.023048     -0.269892     -0.190718
O	      8.35341      8.47432     10.34281        -0.041948      0.031150      0.201521
