# total energy = -209.02837255 eV
 
CRYSTAL
PRIMVEC
0.021663 6.230523 6.379944 
6.205254 0.019737 6.382206 
4.141568 4.159851 0.008213 
PRIMCOORD
36 1
Li	      8.22132      2.14175      6.36664        -0.043772      0.026982     -0.030552
Li	      2.12462      6.20951      8.49227         0.055175     -0.036618      0.012314
Li	      6.18987      2.14418      4.37941         0.021689      0.004017      0.148359
Li	      6.18016      6.23788      4.31000         0.012782     -0.024066      0.047036
Li	      4.13594      2.11716      6.32985         0.034136     -0.043917     -0.024822
Li	      6.16895      4.20287      6.37282        -0.006767     -0.013221     -0.019184
Li	      4.13756      8.32458      4.29866        -0.038020     -0.007194      0.013919
Li	      4.22100      6.17000      6.35551        -0.000403      0.000563     -0.010388
Li	      4.11885      4.24809      8.46686        -0.024727      0.000238      0.011283
Sc	      4.09362      2.08402      2.14417         0.053449     -0.172563     -0.007298
Sc	      8.26089      6.35883     10.67915        -0.014151      0.208185     -0.004681
Cr	      6.23454      2.11457      8.47530        -0.107275      0.073035     -0.111139
Fe	      8.21718      4.11908      4.32094         0.059413     -0.039661     -0.085631
Cu	      8.24344      4.17819      8.49042         0.126038     -0.123726     -0.050044
Cu	      4.23707      4.14728      4.31806         0.153896     -0.036319     -0.028127
Cu	      2.11234      4.12123      6.36475         0.063096     -0.048451      0.100071
Cu	      6.21153      6.20781      8.46616        -0.140392      0.080153      0.048862
Ni	      6.23481      6.25988     12.74859        -0.178532      0.152413     -0.041749
O	      4.06531      4.17494      6.26597        -0.025067     -0.016735      0.128122
O	      6.19577      6.29595      6.51189         0.019918     -0.022495     -0.129419
O	      6.28629      4.14791      8.44795         0.051115     -0.066321      0.005607
O	      6.24165      8.21164      8.35164         0.011694      0.150975     -0.030058
O	      2.02171      2.17862      2.09077         0.039449     -0.071642      0.030230
O	      4.10161      4.21990      2.20196         0.015687     -0.014814      0.028528
O	      4.16325      2.05788      4.20756         0.002958      0.072240     -0.008416
O	      6.26483      4.15503      4.28649        -0.202281      0.039149     -0.027776
O	      6.20680      1.94548      6.52345         0.021056      0.152451     -0.006862
O	      8.43105      4.17007      6.28004        -0.094049     -0.014307      0.397587
O	      2.17044      4.15492      4.38079        -0.115868     -0.039954     -0.214446
O	      4.14245      6.20111      4.13170         0.027918      0.042319      0.075331
O	      8.29363      6.15170      8.55061         0.095321      0.021444      0.011401
O	      1.96065      6.18948      6.39934         0.222504      0.017107      0.012050
O	      4.25500      8.43965      6.39770        -0.014913     -0.138121     -0.008917
O	      4.20202      6.24551      8.61165        -0.140384      0.097627     -0.146382
O	      6.17459      6.24894     10.56706         0.051619     -0.019989     -0.045636
O	      8.28848      8.37551     10.65256         0.007688     -0.188784     -0.039176
