# total energy = -208.72555099 eV
 
CRYSTAL
PRIMVEC
0.040579 6.236219 6.326109 
6.344748 0.056292 6.309797 
4.255677 4.172295 0.011933 
PRIMCOORD
36 1
Li	      4.35792      8.30233      8.41047         0.066504     -0.097354     -0.026927
Li	      4.33799      6.26185     10.43834         0.038717      0.000872     -0.086000
Li	      8.36181      4.25241      8.44873        -0.063496     -0.002137     -0.061397
Li	      6.31473      4.26560      6.42044        -0.056302      0.087399      0.045936
Li	      6.35827      4.20923     10.45047        -0.027359     -0.032670     -0.036517
Li	      6.32160      8.30827      6.34460         0.034448     -0.083763      0.083298
Li	      4.34829      6.26509      6.39146         0.080658     -0.066338      0.002126
Li	      4.32131      4.25758      8.42871        -0.054600      0.024232     -0.028647
Li	      6.28897      6.18842      8.40680        -0.088860      0.012630     -0.056982
Sc	      8.54019      2.25346      6.31497        -0.098752      0.187971      0.134134
Sc	      8.44968      6.24851     10.46112         0.059058     -0.002185     -0.122717
Cr	      8.44542      6.32925      6.35151         0.445682     -0.482724      0.439783
Fe	      6.48798     10.37363      8.46358         0.007860     -0.183341     -0.440806
Cu	      4.29986     10.36858      6.32552        -0.055382      0.124467      0.149656
Cu	      6.38583      8.35922     10.48291         0.014454      0.099840      0.263325
Cu	      6.34388      2.20977      8.45695        -0.113617     -0.041075     -0.386386
Cu	      2.13418      2.11980      4.22708         0.010379     -0.154360      0.367714
Cu	      4.26873      4.16902      4.24894        -0.179399      0.124053      0.245248
O	      4.29884      4.00021      6.28851        -0.049091      0.949795     -0.416588
O	      6.57426      6.24662      6.25377        -0.758458     -0.020223     -0.246896
O	      6.37412      4.13180      8.43309        -0.032939     -0.059701      0.012976
O	      4.04071      6.27787      8.40265         0.738443      0.101847     -0.003555
O	      6.37671      8.49236      8.48912        -0.058967     -0.172919     -0.086482
O	      2.05527      1.98840      2.17321        -0.006026      0.134331     -0.015242
O	      4.46496      4.26803      2.15653        -0.438967      0.099450     -0.106889
O	      4.33102      2.17254      4.32560        -0.027471     -0.019993     -0.431334
O	      6.29380      4.19033      4.19365         0.014127      0.094864      0.261868
O	      6.26272      2.04692      6.32154         0.435237      0.180429     -0.116348
O	      8.58421      4.33076      6.35927        -0.008152     -0.613973     -0.038357
O	      2.25045      4.11186      4.18406         0.004290      0.002321      0.055586
O	      4.22109      6.15682      4.20727         0.309170      0.098422      0.398785
O	      8.56446      6.30320      8.35686        -0.010095     -0.065073      0.273334
O	      2.07920      6.28236      6.32164        -0.066944      0.029648     -0.081345
O	      4.23596      8.40109      6.32831         0.043121     -0.010621     -0.127562
O	      6.37808      6.37725     10.45790         0.007333     -0.306590      0.234587
O	      8.42840      8.34494     10.60142        -0.114604      0.062470     -0.051380
