# total energy = -92.16043758 eV
 
CRYSTAL
PRIMVEC
-2.133578 4.374489 -2.132838 
2.100122 4.339858 2.098363 
2.118542 0.017945 -6.348609 
PRIMCOORD
16 1
Li	      0.03118      4.52544     -4.44752         0.096486     -0.069443      0.496189
Li	      0.00917      4.50468     -0.19101        -0.121536      0.064890      0.172180
Li	      0.04327      2.27247     -2.25269         0.135242      0.258359     -0.142396
Li	      2.13975      2.26735     -4.34477        -0.109657      0.194794      0.113261
Mn	     -0.07250      0.15335     -0.07633         1.997791      0.124808     -0.847806
Mn	     -0.02413      6.77437     -2.21991         0.738190     -1.752094     -0.215691
Ni	      2.17983      6.77313     -4.42288        -0.450114     -0.666987      0.793235
Ni	      2.16487      4.51214     -2.19762        -0.733080      0.426840     -0.548040
O	     -0.01708      4.48226     -6.72304        -0.027267      0.045339      1.745764
O	     -0.06630      2.37298     -4.32181        -0.999057     -0.600886     -0.476471
O	      2.31071      4.57240     -4.39706        -0.908038      0.510749      0.249561
O	      2.15778      4.32109      0.05575        -0.419782      0.185825     -0.888264
O	      2.11340      2.46429     -2.14402         0.318843     -0.102470      1.154659
O	     -0.00604      6.94515     -0.10556         0.015304     -0.519449     -1.078774
O	     -0.09037      4.69866     -2.19440         0.236477      1.074611      0.046372
O	      0.06864      2.07586     -0.02733         0.230196      0.825114     -0.573779
