# total energy = -202.04801795 eV
 
CRYSTAL
PRIMVEC
-0.040897 6.340019 6.221633 
6.225622 0.000888 6.181174 
4.158227 4.206936 -0.007256 
PRIMCOORD
36 1
Li	      8.21691      8.40303     12.30304         0.046357      0.017848     -0.024656
Li	      8.24559     10.47745     10.31091         0.034061     -0.063975      0.015409
Li	      6.38964      8.34809     10.28340         0.025622     -0.036697      0.020104
Li	      4.14335      2.11747      6.18963         0.010298     -0.017221     -0.012211
Li	      8.19504      6.41590     10.29580        -0.040276      0.000317     -0.015440
Li	      2.11904      4.28774      6.26595        -0.011733      0.031394      0.008030
Li	      4.10535      6.24741      6.25317         0.008753     -0.021333     -0.040105
Li	      8.15690      8.50942      8.30890         0.016697      0.009820     -0.001289
Li	      6.27245      6.39892      8.24284         0.124869      0.024081     -0.024305
Sc	      4.18611      8.35512      8.24162        -0.064581     -0.193870     -0.061614
Sc	     10.25452      8.49755     10.34196         0.044823      0.127884      0.166441
Cr	      6.18728      4.24248      6.18378        -0.034836      0.198713     -0.059310
Ni	      6.23000      0.05209      6.15022        -0.184447      0.043464     -0.030439
Ni	      6.22560     10.45551      8.26315        -0.031798      0.049494      0.215553
Ni	      6.21092      2.13338      8.24464        -0.798120     -0.011252     -0.463261
Ni	      8.27950      4.25066      8.25337         0.093217     -0.072254     -0.007763
Ni	      6.21850      6.31904      4.14157         0.056532     -0.014767      0.190895
Ni	      4.12732      4.20863      4.15945         0.049948      0.023015     -0.034486
O	      1.96039      2.23256      2.14452         0.666435      0.046105      0.060997
O	      4.23291      4.24341      2.02022         0.013400      0.040679      0.033132
O	      3.95730      2.18967      4.12224        -0.050838     -0.177224      0.007239
O	      6.17411      4.24912      4.15595         0.198263     -0.188323     -0.148384
O	      6.21835      2.25062      6.34429         0.222121     -0.109539     -0.550980
O	      8.20604      4.21332      6.35268        -0.003131      0.024667     -0.312117
O	      2.11249      4.18776      3.99600        -0.269755      0.131666      0.197286
O	      4.28166      6.26119      4.01905         0.073264      0.387983      0.530221
O	      4.31601      4.20367      6.14019        -0.029928     -0.084915      0.152605
O	      6.21901      6.11085      6.11191         0.049881      0.099272     -0.005882
O	      6.23826      4.24496      8.15771        -0.260635     -0.168017      0.424035
O	      8.45905      6.14177      8.27255        -0.167303      0.172746      0.134504
O	      1.94984      6.36793      6.35088         0.186247      0.024265     -0.129748
O	      4.12267      8.51116      6.20502         0.011596     -0.178051     -0.114073
O	      3.98384      6.33296      8.24813         0.056792      0.206643      0.006475
O	      6.16980      8.43327      8.27742        -0.016597     -0.261424     -0.014888
O	      6.16295      6.35371     10.43018         0.037196     -0.032791     -0.114109
O	      8.31863      8.39953     10.32075        -0.062394     -0.028401      0.002137
