# total energy = -239.05062344 eV
 
CRYSTAL
PRIMVEC
-0.063611 6.371083 6.382612 
6.404902 -0.029349 6.348032 
4.262356 4.216266 -0.011094 
PRIMCOORD
36 1
Li	      6.42652      4.17560      2.26552        -0.041219     -0.051688     -0.032332
Li	      4.31810      2.02780      2.27713         0.080645      0.039075      0.000270
Li	      4.06331      0.17214      4.15995        -0.038070      0.000236     -0.015606
Li	      6.36186      2.12437      4.17985         0.035279      0.028393      0.020664
Li	      2.30122      1.94974      4.19687        -0.062241      0.066914     -0.078841
Li	      8.39851      6.29599      6.23751        -0.047177     -0.066548      0.054018
Li	      6.42966      4.27555      6.22771         0.010940      0.039639      0.088454
Li	      6.35201      4.24965     10.55649        -0.047664     -0.036990     -0.054207
Li	      6.44209      8.40445      6.46077         0.040428     -0.005789      0.058134
Sc	      4.38087      4.07725      4.28419        -0.040977      0.072404      0.021295
Sc	      4.25954      6.40108      6.40156        -0.000877      0.121446      0.062075
Mn	      6.34957      6.32612     12.69510         0.002311     -0.067340      0.030356
Mn	      8.44606      8.47034     12.67398         0.043356     -0.022426     -0.038501
Mn	      6.37248      2.11648      8.48588         0.025339     -0.061640     -0.055696
Mn	      8.46613      4.19231      8.47529        -0.003623     -0.006500     -0.042985
Mn	      8.48245      6.29846     10.57674         0.038694     -0.028284     -0.023050
Mn	      8.46942      8.45249      8.47283         0.044031      0.020775      0.023808
Co	      6.30604      6.44532      8.47831        -0.088228     -0.013574      0.107928
O	      1.91295      2.29918      2.18989         0.007046     -0.088395     -0.026662
O	      4.29277      4.37645      2.10229        -0.013045     -0.047456      0.001763
O	      4.23483      2.12478      4.25503         0.015154      0.004269      0.020307
O	      6.35027      4.21885      4.25726         0.010341      0.025701      0.018990
O	      6.55744      1.87249      6.27850         0.014128     -0.012376     -0.039639
O	      8.53896      4.06737      6.47266         0.068940     -0.035625     -0.086016
O	      2.10769      4.36038      4.09033        -0.001421      0.044420      0.106163
O	      4.06754      6.31265      4.33404        -0.003420      0.022017     -0.029853
O	      4.19824      4.30803      6.42247        -0.025184      0.097730      0.099267
O	      6.32349      6.35633      6.58787        -0.030462      0.009625      0.049159
O	      6.20212      4.08879      8.46237         0.061213      0.010345     -0.112062
O	      8.60358      6.17353      8.35586        -0.026553      0.033742     -0.055713
O	      2.09304      6.51381      6.42575        -0.003641     -0.009877      0.000392
O	      4.04507      8.60696      6.37343        -0.004472     -0.015518      0.039720
O	      4.31503      6.41361      8.48646         0.004136     -0.014993      0.049955
O	      6.52023      8.38543      8.48157        -0.038507      0.037722      0.012326
O	      6.52556      6.27586     10.48545        -0.016199     -0.019559     -0.183212
O	      8.49814      8.26708     10.45204         0.030999     -0.069876      0.009333
