# total energy = -236.03632623 eV
 
CRYSTAL
PRIMVEC
0.061846 6.285608 6.443855 
6.364271 0.013431 6.491425 
4.240497 4.219726 0.011656 
PRIMCOORD
36 1
Li	      2.29010      6.21010      8.61388         0.026270     -0.042549     -0.018028
Li	      4.30228      6.28852     10.62971         0.012610     -0.019056     -0.066504
Li	      4.26078      4.27209      4.47582        -0.008600      0.006790      0.021170
Li	      6.20366      4.31852      6.39199        -0.009038     -0.035929     -0.080616
Li	      2.14651      6.26176      4.29180        -0.002043      0.033089     -0.004952
Li	      2.23904      4.30121      6.45918        -0.002451     -0.001639      0.062824
Li	      4.36559      6.13219      6.55081         0.045602      0.073344      0.021435
Li	      4.28989      4.28824      8.51491         0.007264      0.068396      0.001764
Li	      6.28604      6.34813      8.70480        -0.005385     -0.005346      0.075176
Sc	      2.19341      8.35409      6.42461        -0.011423     -0.074581     -0.022732
Sc	      4.19435      2.25260      6.50588        -0.062015      0.038122      0.015703
Mn	      0.08467      6.26571      6.42593         0.068269      0.001297     -0.069957
Mn	      4.34036      8.29164      8.61337         0.025810      0.037825     -0.016048
Mn	      6.47687      8.49725     10.69615        -0.014281     -0.029315     -0.039223
Mn	      4.23811      6.29232      2.22186         0.069506     -0.046096     -0.015442
Mn	      6.37732      6.22562      4.36867         0.032241     -0.073103      0.048504
Mn	      0.06778      4.18282      4.30548        -0.130496      0.031903      0.066129
Cu	      8.48115      4.27576      8.68573        -0.055925      0.161225      0.004079
O	      4.33777      6.43128      8.58003        -0.056875      0.022581     -0.007350
O	      2.09979      1.97133      2.23361        -0.005502      0.025796      0.090120
O	      4.13427      4.23607      2.07942         0.102420     -0.133148      0.000373
O	      4.12137      2.11698      4.32151        -0.088533     -0.022584      0.106428
O	      6.36554      4.28496      4.32715         0.019636      0.028970      0.034611
O	      6.39293      2.15733      6.36282        -0.011778      0.005316      0.054858
O	      8.66612      4.22105      6.58573        -0.018281     -0.007808      0.025922
O	      2.02865      4.06902      4.23896        -0.009290     -0.017948     -0.064393
O	      4.39995      6.38269      4.32682         0.039856      0.047346      0.001989
O	      4.22710      4.19962      6.49392         0.026320     -0.049010     -0.008529
O	      6.41429      6.27491      6.27135         0.055954     -0.008413     -0.086794
O	      6.49456      4.08739      8.78859        -0.034505      0.008681      0.067740
O	      8.69718      6.43656      8.61699         0.000485     -0.072082      0.003426
O	      1.97664      6.31491      6.45688        -0.042070      0.058866     -0.022388
O	      4.27558      8.37472      6.37482        -0.070105      0.002829     -0.133350
O	      6.26487      8.39659      8.72692         0.060883     -0.016018     -0.017867
O	      6.44820      6.18153     10.84540        -0.028519     -0.006733     -0.026803
O	      8.67209      8.42295     10.85291         0.073989      0.008981     -0.001276
