# total energy = -237.17899635 eV
 
CRYSTAL
PRIMVEC
-0.021146 6.273312 6.440302 
6.334340 -0.016182 6.435135 
4.222593 4.178554 -0.010248 
PRIMCOORD
36 1
Li	      8.35932      2.15320      6.43176         0.016629     -0.051480      0.056291
Li	      8.41196      4.12559      4.40372         0.051426      0.031724     -0.009116
Li	      6.31716      2.15021      8.63652        -0.012540     -0.053939      0.002493
Li	      2.05716      4.18076      2.20888         0.032520     -0.030444      0.015907
Li	      6.23075      6.28096      4.20222        -0.048855     -0.027131     -0.000242
Li	      4.25620      4.20310      4.23519         0.059743      0.037414     -0.009980
Li	      6.45114      4.14084      6.42492         0.013110      0.053681     -0.030797
Li	      8.44502      6.23254     10.53975        -0.003534     -0.042219     -0.020067
Li	      8.53382      8.27437      8.66129        -0.024631      0.034054      0.018680
Sc	     10.49692      4.15393      6.45133        -0.010313      0.005184      0.026995
Sc	      4.20888      2.14174      6.42666         0.005771      0.038145      0.016243
Mn	      6.34155      4.19192      2.17932        -0.015276      0.033217     -0.005568
Mn	      4.19719      2.08932      2.23945        -0.025688      0.019290     -0.025206
Mn	      6.44702      8.42204     10.77019        -0.063472     -0.060664      0.010341
Mn	     10.52050      8.30237     10.67505         0.023209     -0.083539      0.066221
Mn	      4.19458      6.23890      6.33694         0.004232      0.000678     -0.048807
Mn	      6.36273      6.20958      8.54833        -0.036340      0.039549     -0.000093
Ni	      2.11151      4.19796      6.36737        -0.018667     -0.030057      0.032611
O	      2.29044      1.94413      2.20342        -0.003733      0.053970     -0.003265
O	      4.14590      4.03591      2.11491         0.046215      0.031183      0.008700
O	      4.50522      2.10428      4.32540         0.003483      0.009514      0.043273
O	      6.41926      4.13910      4.09485         0.026217      0.012460      0.040190
O	      6.32425      2.04705      6.43294         0.033594     -0.020490     -0.014145
O	      8.47681      4.24329      6.43295        -0.004118     -0.019851     -0.029552
O	      1.86177      4.15529      4.35022        -0.101594     -0.000246     -0.166804
O	      4.14604      6.37275      4.38594         0.005400      0.028720     -0.106232
O	      4.18325      4.30308      6.36598         0.054927     -0.048822     -0.019739
O	      6.36263      6.29902      6.51200         0.054823     -0.094440     -0.038514
O	      6.29640      4.11806      8.80985        -0.013303     -0.002882     -0.010319
O	      8.26287      6.28477      8.51480        -0.032705      0.027275      0.016807
O	      2.03964      6.23484      6.65645        -0.026555      0.094379      0.006900
O	      4.18951      8.27029      6.27471        -0.058038      0.035153     -0.090104
O	      4.37152      6.37491      8.37123        -0.001261     -0.036841      0.108507
O	      6.18109      8.43855      8.56029         0.021802     -0.022136      0.095884
O	      6.30336      6.14328     10.68136         0.005187      0.035321      0.062787
O	      8.38568      8.33320     10.72152         0.042336      0.004270     -0.000283
