# total energy = -242.93954452 eV
 
CRYSTAL
PRIMVEC
0.007229 6.394384 6.420639 
6.372112 0.026052 6.402140 
4.254057 4.256541 0.011284 
PRIMCOORD
36 1
Li	     10.59090      4.37385      6.50568         0.010921     -0.022535      0.049413
Li	      6.35781      2.16551      4.41801        -0.025930     -0.049894      0.053973
Li	      6.26563      2.19122      8.45539        -0.047401      0.031779      0.013139
Li	      8.50194      4.35997      8.46074        -0.012883      0.038384     -0.056234
Li	      4.33403      4.19374      4.33163        -0.003587     -0.057386      0.001026
Li	      4.35382      2.27012      6.50174         0.004704      0.006258      0.100872
Li	      6.23949      4.21043      6.48620         0.014443      0.039926      0.127913
Li	      4.32505      6.31817      6.41074         0.003029      0.007586      0.015139
Li	      4.37863      4.13541      8.39666         0.051991     -0.071917     -0.056661
Sc	      8.46726      4.31780      4.37492        -0.002102     -0.058635     -0.002533
Sc	      2.30094      4.25668      6.39621        -0.186437      0.036715      0.039525
Mn	      8.40924      2.18832      6.41835         0.202034     -0.030767     -0.028744
Mn	      6.36403     10.64881      8.54692         0.012661     -0.007306     -0.062092
Mn	      4.23878      2.16564      2.10758         0.051850     -0.092958     -0.075333
Mn	      6.34525      6.41466      4.31617        -0.033248      0.089685      0.009861
Mn	      6.35709      4.29728     10.65071         0.010389     -0.009725      0.032925
Mn	      2.20242      6.38073      4.21537         0.071236     -0.033394      0.040161
Mn	      6.43051      6.35681      8.50802        -0.016627      0.058157     -0.025357
O	      2.25290      2.16585      1.97628        -0.047869      0.142707     -0.048134
O	      4.42080      4.05603      2.11773        -0.031971      0.090284      0.007039
O	      4.11615      2.09524      4.30617         0.004491      0.063362      0.108060
O	      6.37720      4.40159      4.13262        -0.119633     -0.006634      0.023175
O	      6.55317      2.14485      6.45845        -0.078237      0.008441      0.006932
O	      8.48225      4.08573      6.39561        -0.011130      0.006471      0.018445
O	      2.15307      4.18509      4.31956         0.105369     -0.047238     -0.031360
O	      4.35881      6.53128      4.21478         0.130177     -0.008966     -0.019197
O	      4.21942      4.29622      6.43596         0.192902     -0.017654     -0.022351
O	      6.36797      6.43752      6.51888         0.015145     -0.085846      0.105276
O	      6.31745      4.43417      8.70375         0.028782     -0.110395     -0.109507
O	      8.50720      6.40787      8.61417         0.181671     -0.015968     -0.202685
O	      2.13554      6.46553      6.44911        -0.026680      0.066949      0.114079
O	      4.14263      8.52435      6.26122        -0.053909      0.038216     -0.078053
O	      4.13174      6.55792      8.58830        -0.174346      0.000782      0.012971
O	      6.24527      8.39849      8.52136        -0.039521     -0.044984      0.029565
O	      6.34073      6.33234     10.57286        -0.087060      0.015627     -0.110833
O	      8.41876      8.55544     10.88264        -0.093224      0.030872      0.019582
