# total energy = -228.12982236 eV
 
CRYSTAL
PRIMVEC
-0.019434 6.249286 6.303553 
6.269588 -0.018540 6.302303 
4.169395 4.155054 -0.002116 
PRIMCOORD
36 1
Li	      4.21379     10.31037      6.32117         0.007044      0.033531      0.003605
Li	      2.17202      8.25562      6.28840        -0.006683      0.019810     -0.021838
Li	      6.26690      8.27736     10.49086         0.062282     -0.108007      0.011921
Li	      8.35615      4.16516      8.39791        -0.010104     -0.008782     -0.003926
Li	      4.17142      4.14748      4.21583        -0.097656      0.052581      0.052461
Li	      4.20251      8.30122      4.29322         0.038948      0.025428      0.089004
Li	      6.15374      8.38620      6.31537         0.042856      0.043458     -0.039604
Li	      4.12277      6.32988      6.29067        -0.003539     -0.040552     -0.028336
Li	      8.33847      8.25005      8.36595         0.011313      0.013240     -0.039358
Sc	      8.40019     10.24651     10.50015         0.283933     -0.178892      0.057756
Sc	      4.19213      6.20922      2.13106         0.131720     -0.105148      0.147918
Mn	      4.17038      2.12104      2.04671        -0.049353      0.072099     -0.063264
V	      6.18695      4.12810      6.23894         0.016886     -0.134988     -0.069012
V	      2.04744      6.22549      4.35416         0.108822      0.154935     -0.179614
Fe	      4.14286      2.09507      6.28461         0.087950      0.090181     -0.119497
Co	      6.28601      6.23250      8.40915        -0.254499      0.163304     -0.097023
Cu	      2.03823      2.17849      4.22372        -0.118561      0.080636     -0.091734
Ni	      2.08037      6.19358      8.32057        -0.038465      0.042010     -0.074717
O	      2.16235      2.04909      2.17958         0.041451      0.078770     -0.027093
O	      4.22114      4.06995      2.10570        -0.099851     -0.011878      0.061035
O	      4.06064      2.04467      4.17445         0.176598      0.013975     -0.049098
O	      6.31336      4.02332      4.33485        -0.103999     -0.130866      0.086174
O	      6.16308      2.13862      6.33682         0.039450     -0.074986     -0.013957
O	      8.21830      4.21341      6.23551         0.179648     -0.009522      0.108537
O	      2.09064      4.44927      4.18642        -0.041400     -0.254266     -0.086006
O	      4.16092      6.30700      4.17438         0.017272      0.003654      0.122117
O	      4.28657      4.08613      6.30822        -0.266492     -0.002934     -0.057254
O	      6.29992      6.15163      6.22735        -0.203676      0.265444      0.286009
O	      6.27157      4.14196      8.19269         0.071580      0.260566     -0.058399
O	      8.37264      6.23145      8.36769        -0.586187     -0.012713     -0.020406
O	      2.07976      6.28260      6.22681        -0.060270      0.019459      0.326179
O	      4.12945      8.35184      6.52132         0.002473     -0.023779      0.056563
O	      4.12209      6.40012      8.43128         0.621927     -0.079490     -0.145490
O	      6.04780      8.32211      8.40434         0.171228     -0.462851      0.057250
O	      6.31568      6.21793     10.51268        -0.135379     -0.005285     -0.128182
O	      8.36970      8.17816     10.45810        -0.037267      0.211857     -0.052723
