# total energy = -228.70510788 eV
 
CRYSTAL
PRIMVEC
0.013035 6.245533 6.416963 
6.277075 -0.004265 6.434483 
4.178637 4.169247 0.003144 
PRIMCOORD
36 1
Li	      6.30783      6.24973     12.64029         0.023526      0.008171     -0.111372
Li	      4.22607      8.27796      8.42657        -0.040783      0.008258     -0.064829
Li	      8.38874     10.27139     10.84724        -0.038016      0.039361      0.017665
Li	      6.47298      8.26684     10.73682        -0.013742      0.030961     -0.013795
Li	      6.25284      2.16355      8.45868         0.021857      0.008866     -0.048293
Li	      6.29518      4.13313      6.45160         0.008910     -0.001339      0.010611
Li	      8.33504      6.43115     10.80646         0.005532     -0.072766      0.024550
Li	      6.16368      8.34258      6.43518         0.007468      0.014536      0.011381
Li	      8.42909      8.28778      8.76680        -0.000805      0.006107      0.043614
Sc	      2.15969      6.16561      8.48143        -0.020435     -0.009448      0.015667
Sc	      8.33579      4.10333      8.50294         0.032944      0.011574     -0.031352
Mn	      6.27226      6.24616      4.35273        -0.018488     -0.040301     -0.003621
V	      4.17737      4.17505      4.35052         0.010727      0.034299     -0.028093
V	      6.24518      6.32831      8.62272        -0.010968     -0.046159      0.035677
Fe	      4.38280      2.04434      6.44482        -0.187644      0.106017     -0.052153
Co	      4.19018      6.26374      6.44087         0.059297     -0.049546      0.014581
Ni	      8.35552      8.31306     12.76381        -0.042659      0.018105      0.023078
Ni	     10.37087      8.35118     10.73363         0.124452     -0.030858     -0.052948
O	      2.07403      2.05994      2.10077         0.007607     -0.016850      0.091156
O	      4.18329      4.19095      2.43939         0.010229      0.004209     -0.008873
O	      4.04332      2.18997      4.44969         0.052491     -0.033801     -0.008958
O	      6.18838      4.30678      4.25562         0.018298     -0.011420     -0.010389
O	      6.25038      2.07113      6.42133         0.041874      0.039029     -0.007930
O	      8.42153      4.22987      6.44990        -0.027756     -0.003654      0.053294
O	      2.15045      4.04400      4.25488         0.031646     -0.011327      0.019665
O	      4.29100      6.20735      4.47182        -0.062353     -0.057376      0.060784
O	      4.19413      4.20867      6.22362        -0.029995     -0.054536      0.009120
O	      6.16985      6.24363      6.61154         0.023301     -0.000193     -0.049138
O	      6.30284      4.24595      8.62663         0.010608      0.007995     -0.068608
O	      8.26389      6.25591      8.42038        -0.012910      0.038243      0.063728
O	      2.20535      6.22561      6.42366         0.051619     -0.077607      0.041350
O	      4.14769      8.18515      6.34773         0.085000      0.003161      0.124105
O	      4.23581      6.25125      8.39544        -0.036716     -0.022773     -0.056359
O	      6.24843      8.28183      8.58070        -0.004542      0.060646      0.006307
O	      6.27181      6.24059     10.45430         0.007834      0.097862      0.026102
O	      8.39384      8.34424     10.74804        -0.087407      0.002551     -0.075723
