# total energy = -91.80855597 eV
 
CRYSTAL
PRIMVEC
-2.143885 4.395622 -2.143142 
2.110268 4.360823 2.108500 
2.128776 0.018032 -6.379278 
PRIMCOORD
16 1
Li	      0.03148      4.56926     -4.49060         0.102579     -0.090490      0.559491
Li	      0.01955      4.54839     -0.22368        -0.129834      0.070441      0.186818
Li	      0.04369      2.29448     -2.27451         0.151281      0.286839     -0.160139
Li	      2.16048      2.28931     -4.38685        -0.119536      0.217782      0.127114
Mn	     -0.08356      0.17608     -0.08742         2.250202      0.137364     -1.022439
Mn	     -0.02436      6.83997     -2.24141         0.797262     -1.923819     -0.228310
Ni	      2.20095      6.83872     -4.46571        -0.470565     -0.729526      0.879789
Ni	      2.18584      4.55585     -2.21890        -0.797486      0.446531     -0.615979
O	     -0.01725      4.52567     -6.78816        -0.055539      0.036428      2.062937
O	     -0.05674      2.41703     -4.35348        -1.059676     -0.663460     -0.527468
O	      2.33309      4.61668     -4.43964        -1.076269      0.562249      0.268876
O	      2.17868      4.36294      0.05629        -0.467633      0.230967     -1.003921
O	      2.12351      2.50940     -2.17514         0.350927     -0.082629      1.235555
O	     -0.00610      7.01242     -0.10659         0.014791     -0.595336     -1.168280
O	     -0.09124      4.74416     -2.21566         0.297997      1.163157      0.054403
O	      0.06931      2.09597     -0.02759         0.211497      0.933502     -0.648446
