# total energy = -231.46131756 eV
 
CRYSTAL
PRIMVEC
0.112181 6.501461 6.108606 
6.470746 0.098149 6.120814 
4.346773 4.375809 0.031575 
PRIMCOORD
36 1
Li	      0.37467      6.63046      6.09098        -0.014724      0.054728      0.008737
Li	      2.19863      8.41582      6.14978         0.003788     -0.007926      0.032315
Li	      2.29006      6.42246      7.99699        -0.024015     -0.019178      0.038573
Li	      6.71494      8.68455     10.21927         0.004111     -0.035778      0.002053
Li	     10.73967      6.60610      8.16382        -0.059989      0.046120      0.011441
Li	      8.67268      6.73161     10.35294         0.003677      0.018221     -0.046590
Li	      2.26110      4.68669      6.17344         0.006713     -0.010447      0.008370
Li	      4.09750      6.54369      6.20100         0.028755      0.035124     -0.009449
Li	      8.64430      8.77732      8.22001        -0.025801      0.001816     -0.014457
Sc	      6.52181      4.25790      6.13942        -0.138056     -0.043250      0.004621
Sc	      6.54890      6.71258      8.16417         0.118720     -0.010371     -0.075835
Mn	      4.31725      4.41110      4.10449         0.016248     -0.032191      0.034410
V	      6.47900      6.57553      4.08620         0.046317      0.154489     -0.081991
V	      4.33899      8.75535      4.31831         0.163539     -0.049385     -0.120697
Fe	      8.74851      4.50567      8.08719        -0.107526     -0.039903      0.239764
Co	      4.45697      2.20027      6.10662        -0.307436      0.127954     -0.167892
Co	      4.46462      8.71208      8.13997         0.050348      0.014971      0.073576
Co	      8.78080     10.91885     10.20736         0.082250      0.056892     -0.161891
O	      2.26097      6.54803      6.10312         0.013090     -0.051034     -0.001232
O	      2.37944      2.30192      2.15703        -0.031472     -0.079202     -0.085630
O	      4.25873      4.22138      2.14893         0.157633     -0.056731      0.058393
O	      4.20971      2.13365      3.96466         0.097867     -0.238227      0.141526
O	      6.37625      4.57312      4.05150        -0.142288     -0.254081      0.059214
O	      6.47824      2.27778      6.10467        -0.353075     -0.091448      0.019005
O	      8.62490      4.47257      6.13862         0.112328      0.235437     -0.369338
O	      2.19688      4.20618      4.05593         0.207008      0.204168      0.053519
O	      4.56729      6.68501      4.04844        -0.244744     -0.004300     -0.003923
O	      4.42014      4.33305      6.04832        -0.031240     -0.198225     -0.018655
O	      6.64672      6.49452      5.97838         0.452914     -0.023679      0.198485
O	      6.66095      4.47655      8.23534        -0.083574      0.006111     -0.015124
O	      8.67533      6.49655      8.21193         0.135507      0.138800     -0.043825
O	      4.45673      8.68885      6.09098        -0.003111      0.035273      0.011391
O	      4.46215      6.74843      8.18283        -0.068045     -0.060106      0.179462
O	      6.43538      8.71411      8.21743         0.014602     -0.033765     -0.033213
O	      6.55880      6.42661     10.19986        -0.025473      0.052705      0.043929
O	      8.92556      8.90353     10.17959        -0.054841      0.156418      0.030956
