# total energy = -224.35423068 eV
 
CRYSTAL
PRIMVEC
0.005913 6.327840 6.355779 
6.362166 -0.015475 6.377330 
4.231061 4.222782 -0.000187 
PRIMCOORD
36 1
Li	      6.31814      0.09974      6.37206         0.010001     -0.004707      0.001367
Li	     10.37565      6.39497      8.46187         0.037058     -0.015218      0.040774
Li	      8.39752      4.43462      8.35816        -0.001065     -0.011327      0.009117
Li	      4.23139      4.17815      4.19640         0.010550     -0.026780      0.040015
Li	      8.55012      6.28441      6.60565        -0.013387      0.026999     -0.071003
Li	      6.43663      4.08339      6.55794        -0.052751      0.004007      0.067269
Li	      8.46522      6.31867     10.33510         0.060625     -0.066983      0.018054
Li	      8.57678      8.15777      8.53150         0.032341      0.030356     -0.010489
Li	      6.65469      6.20852      8.50046        -0.020908     -0.017865     -0.048689
Sc	      8.48521      4.19377      4.36114         0.031823      0.018474     -0.082572
Sc	      4.25632      6.32716      6.33407         0.166234     -0.139384     -0.034556
Mn	      6.36052      4.22864     10.48022         0.195323     -0.001804      0.002419
V	      6.23136      4.25152      2.14598        -0.005092     -0.207636      0.028732
V	      2.21084      4.18656      6.34948        -0.011060     -0.118189      0.058783
Fe	      4.19098      2.13920      2.15385         0.205944      0.067344     -0.143805
Cu	      8.28930      2.20629      6.43281        -0.016563     -0.083209     -0.027691
Ni	      6.38762      8.36888     10.64119        -0.005790     -0.018627     -0.305225
Ni	      2.11858      2.13283      4.24479        -0.007165      0.010156      0.154805
O	      8.50984      6.29983      8.46253         0.031104     -0.008717     -0.001753
O	      2.22516      1.98562      2.18730        -0.172780      0.131213     -0.140944
O	      4.41476      4.15215      2.12627        -0.157128      0.096629     -0.019048
O	      4.27362      2.08011      4.11125        -0.020239     -0.023992      0.146824
O	      6.36710      4.20265      4.10313         0.019620     -0.045768      0.091623
O	      6.37774      2.09866      6.23748        -0.001945      0.033115      0.260412
O	      8.42925      4.15755      6.36408        -0.031572      0.007127      0.086327
O	      1.98793      4.19429      4.40189        -0.073951      0.133257     -0.214305
O	      4.28570      6.51637      4.28151        -0.176336      0.026352     -0.046947
O	      4.01311      4.25948      6.32537         0.334759      0.067698     -0.074922
O	      6.31651      6.46200      6.33410        -0.075339     -0.177043      0.114800
O	      6.38039      4.21097      8.66522         0.043858     -0.031568     -0.123051
O	      2.15765      6.23176      6.50857        -0.116195      0.301547     -0.062772
O	      4.40756      8.43626      6.39140        -0.277924      0.057496      0.046729
O	      4.04546      6.40889      8.45970         0.037514     -0.029304      0.047899
O	      6.27809      8.52554      8.41781        -0.000184      0.013256      0.145752
O	      6.32719      6.19354     10.59206         0.030945      0.028049      0.008338
O	      8.64076      8.43118     10.58055        -0.010323     -0.024955      0.037734
