# total energy = -225.66150044 eV
 
CRYSTAL
PRIMVEC
0.007292 6.706848 6.210430 
6.183532 0.009462 6.206655 
4.145158 4.492137 -0.014831 
PRIMCOORD
36 1
Li	      4.12910      8.78730      8.28383        -0.038257     -0.002002     -0.027539
Li	      4.13159      0.23659      4.01591        -0.001826      0.048744      0.070145
Li	      8.19975      4.64766      8.28152        -0.012527      0.024023     -0.027273
Li	      2.14688      2.27086      4.06568        -0.060272      0.072805      0.024172
Li	      4.19525      2.26682      6.14679        -0.011160      0.021667      0.076784
Li	      4.12027      8.91601      4.21943         0.055051      0.045824      0.002236
Li	      4.14274      6.77417      6.22816         0.038236     -0.050443      0.038477
Li	      4.10232      4.60485      8.31710         0.110041      0.092380     -0.064127
Li	      6.17104      6.76479      8.35359        -0.085742     -0.032232     -0.007575
Sc	      6.16703      2.30231      8.23976        -0.030702      0.061479     -0.066715
Sc	      4.13285      4.37949      4.14065        -0.049910      0.102991      0.107464
Mn	      2.19318      6.70048      8.24682         0.003682      0.222739      0.019102
V	     10.22206     11.07800     12.31534        -0.567550      0.133261     -0.050572
V	      6.28539      4.88639      6.22210         0.091211     -0.312736     -0.045991
Fe	      8.25473      6.70061     10.29679        -0.111569     -0.076491      0.119589
Cu	      2.05196      8.88891      6.18259         0.071501      0.033649      0.144679
Cu	      6.20163      8.93205     10.26878         0.045950      0.094210     -0.141515
Cu	      6.16603      8.93312      6.26367         0.097672      0.105704      0.086853
O	      8.15512      8.69982     10.41113        -0.112365      0.003489     -0.089171
O	      2.05187      2.00649      2.00706         0.163575     -0.132340      0.030315
O	      4.21933      4.58664      1.95884         0.046432     -0.057920      0.035659
O	      4.23620      2.37746      4.09892         0.053163     -0.138989     -0.080713
O	      6.27227      4.61442      4.36224         0.037871      0.175397     -0.040323
O	      6.21511      2.00137      6.15217        -0.039357     -0.266862     -0.060064
O	      8.19883      4.61804      6.20664        -0.051551      0.003093      0.023020
O	      2.08329      4.49328      4.28366         0.037554     -0.044705     -0.284653
O	      4.08257      6.63299      4.11504        -0.045192      0.051813     -0.076682
O	      4.46682      4.48056      6.19556        -0.015680     -0.011956      0.014885
O	      6.23367      6.61830      6.26197        -0.004978      0.419009      0.053977
O	      6.27708      4.39503      8.02584        -0.002436     -0.071593      0.095086
O	      8.24403      6.66994      8.37536         0.083312      0.043339     -0.083167
O	      1.86476      6.51350      6.13365         0.525052     -0.061458     -0.026280
O	      3.98052      9.16527      6.23188        -0.160335     -0.213980      0.077357
O	      4.06040      6.72585      8.25188        -0.040051      0.048173      0.007954
O	      6.24766      9.19247      8.22579        -0.103458     -0.224404      0.174590
O	      6.12473      6.57516     10.50420         0.084614     -0.105677     -0.029984
