# total energy = -228.95560565 eV
 
CRYSTAL
PRIMVEC
-0.021058 6.206030 6.348596 
6.397529 -0.050103 6.377743 
4.246342 4.138972 -0.014531 
PRIMCOORD
36 1
Li	      2.03199      0.07661      2.11333        -0.013776      0.076070      0.007994
Li	      4.12375      2.15088      2.16473        -0.064709     -0.001806      0.021604
Li	      8.50783      4.13698      4.27535         0.038377      0.020911     -0.057382
Li	      4.31012      6.16158      2.21789        -0.004261     -0.010447      0.012507
Li	      2.21165      4.07836      2.17044         0.078014      0.013670      0.032005
Li	      4.20411      4.14145      3.99648        -0.093062      0.023203     -0.008769
Li	      6.42122      4.10611      6.39569         0.051777     -0.041565     -0.051801
Li	      4.22987      8.19742      4.21462         0.002745     -0.026150      0.075803
Li	      4.21310      6.25201      6.27387        -0.063345     -0.006119     -0.009633
Sc	      4.22294      4.15856      0.13299         0.022194     -0.000424     -0.063810
Sc	      6.30639      8.28397      6.31943        -0.104793      0.084095     -0.227616
Mn	      8.47351      6.12997      6.33366        -0.003561     -0.034552      0.047000
V	      6.37548      2.19910      4.23983        -0.054165     -0.149413     -0.047463
V	      4.31296      4.15592      8.48775         0.487066     -0.718800      0.188992
Fe	      6.18589      6.20516      4.08368         0.070055     -0.024998      0.244839
Fe	      6.36326      6.09199      8.51569         0.030084      0.303928      0.025476
Cu	      2.23810      6.15297      4.22385         0.015476     -0.142990      0.006046
Ni	      2.17466      2.07257      0.08891         0.014595      0.039276      0.140719
O	      2.14042      2.05960      2.22087         0.000446     -0.001736     -0.172286
O	      4.22869      4.16383      2.06324         0.041915     -0.019558     -0.025172
O	      4.39676      2.02561      4.36559         0.100301      0.068154     -0.090830
O	      6.42324      3.99989      4.18194         0.015929      0.054965      0.028713
O	      6.49963      2.06259      6.18477        -0.079939      0.062907      0.001438
O	      8.53338      4.17100      6.34778        -0.031201     -0.043446     -0.012347
O	      2.13191      4.08686      4.27567        -0.064113     -0.289539      0.015500
O	      4.28373      6.16608      4.22769        -0.028301      0.007956      0.010647
O	      4.19739      3.96015      6.51602         0.007155      0.364386      0.424450
O	      6.31453      6.17597      6.33936         0.065965     -0.043987     -0.001781
O	      6.23959      4.14282      8.52563        -0.753515     -0.352005     -0.119581
O	      8.39905      6.26948      8.33538         0.089356     -0.197171      0.000710
O	      2.10049      6.20209      6.41744         0.010541     -0.066072      0.129253
O	      4.21817      8.30584      6.33360         0.153123     -0.019966      0.015664
O	      4.34164      5.97853      8.49772        -0.076688      0.596685     -0.102144
O	      6.45605      8.18236      8.52619         0.274615      0.091189     -0.060107
O	      6.47097      6.33423     10.50037        -0.130037      0.059321      0.094375
O	      8.41458      8.14926     10.48975        -0.004260      0.324028     -0.473015
