# total energy = -229.29506875 eV
 
CRYSTAL
PRIMVEC
0.044632 6.464163 6.381087 
6.227078 0.024969 6.401724 
4.151159 4.323327 0.016704 
PRIMCOORD
36 1
Li	      4.15666      4.34012      0.07751        -0.006088      0.052480     -0.035924
Li	      4.13090      2.19032      2.12310        -0.016282      0.032873     -0.033905
Li	      4.06214      0.19836      4.17643        -0.027239      0.056648      0.026588
Li	      6.24786      2.15066      8.42897         0.000348     -0.012915     -0.047866
Li	      2.17353      2.13588      4.18721        -0.098118     -0.000569     -0.070490
Li	      4.20872      2.26016      6.38252        -0.026008      0.017352      0.030578
Li	      6.18274      4.30179      6.53019         0.055773     -0.018644      0.020452
Li	      0.06287      4.28903      4.26353         0.001135      0.012233     -0.018006
Li	      6.22542      8.61019      6.47899         0.002595     -0.039166      0.023198
Sc	      8.39777      8.71590     12.75576        -0.003599      0.137404      0.074592
Sc	      6.09856      2.19286      4.31686         0.023276      0.140821      0.052110
Mn	      6.16093      4.33673      2.12457         0.145600      0.042098      0.030682
V	      2.14005      4.27513      2.09733        -0.041136     -0.048794     -0.046144
V	      6.23751      6.48226      8.48480         0.076720     -0.079183     -0.038084
Fe	      2.12315      6.40820      4.24637        -0.080782     -0.058910      0.032438
Fe	      4.22450      6.46367      6.37347         0.052145      0.024421      0.051254
Cu	      4.14534      4.26718      4.34436         0.039456      0.006596      0.203520
Cu	      4.23130      4.31280      8.52997         0.085726      0.004333      0.051220
O	      2.07583      2.30727      2.08349        -0.002423      0.031739     -0.055797
O	      4.19239      4.33983      2.04215        -0.104649     -0.011709     -0.014292
O	      4.10519      2.26271      4.33936        -0.067611     -0.099936      0.003104
O	      6.19563      4.30658      4.04727         0.257255     -0.006388     -0.043913
O	      6.28737      2.24125      6.32764        -0.010738     -0.043172     -0.067740
O	      8.35073      4.32891      6.62978         0.021805     -0.089030      0.030846
O	      2.12554      4.38328      4.07254        -0.199201      0.004792     -0.099744
O	      4.09130      6.28951      4.38194         0.161237      0.057907     -0.023182
O	      4.19867      4.47030      6.59024        -0.078090     -0.113703     -0.243283
O	      6.23300      6.48951      6.65256        -0.000630     -0.024198      0.157182
O	      6.35316      4.48316      8.57917        -0.041003      0.093939      0.028545
O	      8.25473      6.35021      8.60536        -0.018127     -0.138260      0.006466
O	      2.12481      6.49815      6.45967        -0.002704      0.015162     -0.092725
O	      4.19910      8.46065      6.30824         0.015233      0.025411     -0.011599
O	      4.14951      6.55702      8.50269         0.008421      0.144404     -0.023419
O	      6.29271      8.50289      8.55974        -0.079255     -0.105581     -0.004747
O	      6.28778      6.51437     10.48448        -0.084294      0.041924     -0.019985
O	      8.34119      8.46913     10.61407         0.041250     -0.052380      0.168069
