# total energy = -230.24612062 eV
 
CRYSTAL
PRIMVEC
-0.014453 6.350419 6.289170 
6.346187 -0.014545 6.289086 
4.216563 4.219655 0.004309 
PRIMCOORD
36 1
Li	      2.14817      2.09791      0.06446         0.022487     -0.073632      0.070971
Li	      2.12495      6.34207      8.33973        -0.010630      0.012806     -0.029216
Li	      4.20761      2.11205      2.11277         0.015473      0.003706      0.008596
Li	      4.26268      6.37314     10.46154        -0.011068      0.004416     -0.081479
Li	      6.20764      2.15863      4.21020        -0.049655      0.054429     -0.067527
Li	      4.26608      2.08033      6.22706         0.008607      0.018766     -0.015807
Li	      2.07929      6.33447      4.22428        -0.031338      0.043874      0.045975
Li	      2.07900      4.33767      6.30199        -0.039158      0.117860      0.048454
Li	      4.15497      6.35021      6.33354        -0.036726      0.018577      0.041204
Sc	      4.18983      6.26505      2.09227         0.073095     -0.141258     -0.000849
Sc	      2.23944      2.11326      4.22127         0.101732     -0.074703      0.029262
Mn	      6.40727      4.16938      6.25552        -0.036487     -0.053965     -0.095632
V	      6.37172      6.30856     12.49770         0.255312     -0.007824      0.052968
V	      8.31238      8.49575      8.35146         0.175828      0.014238     -0.000621
Fe	      4.20563      8.42484      4.28549        -0.052746     -0.009016     -0.025672
Fe	      6.30023      6.40575      8.37002        -0.138794     -0.091094      0.023775
Ni	      2.13704      4.20574      2.08099         0.024328      0.006724      0.053875
Ni	      4.21691      4.19264      4.27721        -0.063912      0.125957      0.049187
O	      2.03849      2.12519      2.15562        -0.022836     -0.073565     -0.044591
O	      4.17960      4.23533      2.05486         0.109127      0.008643     -0.061803
O	      4.21485      2.18889      4.19279         0.008674     -0.152045      0.029667
O	      6.30123      4.23593      4.35418         0.045715     -0.053549     -0.054210
O	      6.37704      2.16086      6.29840        -0.007508      0.032776      0.000321
O	      8.67449      4.22801      6.32859        -0.078644      0.018788     -0.126624
O	      2.04833      4.21630      4.16646         0.032323      0.052026      0.079645
O	      4.22823      6.38640      4.20627        -0.036516     -0.053984     -0.020296
O	      4.18141      4.22458      6.45799         0.053054     -0.030454     -0.072623
O	      6.34970      6.14059      6.35890         0.036795     -0.023931     -0.058468
O	      6.33720      4.22404      8.29464        -0.049700      0.114943      0.065713
O	      8.37387      6.37197      8.38732        -0.094699      0.029731     -0.024945
O	      1.82925      6.39230      6.29476        -0.055610      0.015006     -0.012396
O	      4.19194      8.56348      6.20484        -0.015444      0.000417      0.128680
O	      4.29576      6.22478      8.36906        -0.060912      0.122478     -0.017684
O	      6.40850      8.37158      8.39150        -0.096120      0.015319     -0.011967
O	      6.32197      6.22621     10.47955         0.008993      0.036345      0.009925
O	      8.58944      8.41524     10.19830         0.016960     -0.028804      0.084193
