# total energy = -233.66105802 eV
 
CRYSTAL
PRIMVEC
-0.015562 6.343632 6.232338 
6.403254 -0.024735 6.241109 
4.255892 4.221851 -0.003675 
PRIMCOORD
36 1
Li	      2.22740      6.26267      8.33536         0.092795     -0.019519      0.047446
Li	      4.29866      8.38334      8.34065         0.027153     -0.008173      0.014383
Li	      4.30394      6.29512     10.19994         0.037215     -0.062609     -0.075749
Li	      4.19671      6.34925      2.14902        -0.040870      0.009256      0.026428
Li	      4.30191      2.12228      6.25122         0.044158      0.028098      0.040284
Li	      6.39399      4.21977     10.30272        -0.039917      0.015302     -0.039388
Li	      8.53799      6.30881     10.36098        -0.023226      0.014625     -0.015007
Li	      4.25896      4.27420      8.37222        -0.020836     -0.022253      0.041276
Li	      6.29700      6.30713      8.36506        -0.011850      0.005547      0.066234
Sc	      2.15768      8.43272      6.24919        -0.056887      0.015759     -0.090751
Sc	      2.13556      2.09008      4.08892         0.056754     -0.050666     -0.023427
Mn	      6.38941      4.19540      6.27016         0.057517     -0.000921      0.018953
V	      8.50767      4.39848      8.34244         0.002963      0.234656      0.006119
V	      6.37588      8.37904     10.30255         0.138901      0.006871     -0.006619
Fe	      4.25843     10.54591      6.24164        -0.056474      0.081221     -0.015131
Fe	      6.37237      8.46508      6.36197         0.028662     -0.104322     -0.181544
Fe	      4.25825      6.29585      6.36180        -0.024420      0.024619     -0.226460
Cu	      4.26814      4.23330      4.09169         0.041110     -0.007184     -0.102152
O	      2.11343      2.22266      2.06926         0.012237      0.009291      0.019076
O	      4.07748      4.24856      2.04843        -0.037826     -0.015297      0.062907
O	      4.43556      2.23152      4.14031        -0.083150     -0.146397     -0.000311
O	      6.51634      4.19033      4.29567         0.211728      0.015990      0.031178
O	      6.42624      2.14800      6.13106         0.024597      0.089473      0.027324
O	      8.53717      4.16871      6.36270        -0.121304     -0.007600      0.010237
O	      2.00001      4.17125      4.11425        -0.146369     -0.013786      0.079450
O	      4.32014      6.21199      4.23034        -0.022554      0.153952      0.040069
O	      4.14628      4.25001      6.21837        -0.022218     -0.040728      0.078947
O	      6.35254      6.34242      6.21861        -0.001927     -0.005147     -0.048669
O	      6.50200      4.18797      8.18315        -0.004667     -0.016850      0.024713
O	      8.51941      6.15905      8.34310        -0.009582     -0.159733      0.000384
O	      2.15847      6.28587      6.24662         0.080771     -0.009033      0.013224
O	      4.29150      8.37755      6.18135         0.002152     -0.093521      0.015445
O	      4.24356      6.32768      8.22632        -0.008374      0.002723      0.159947
O	      6.36651      8.44733      8.32214        -0.032543     -0.002579      0.058381
O	      6.32093      6.47821     10.43739        -0.072684      0.042112     -0.080220
O	      8.28646      8.42402     10.40184        -0.021035      0.036824      0.023024
