# total energy = -91.42187993 eV
 
CRYSTAL
PRIMVEC
-2.154192 4.416755 -2.153445 
2.120413 4.381789 2.118637 
2.139011 0.018118 -6.409948 
PRIMCOORD
16 1
Li	      0.03178      4.61330     -4.53388         0.107977     -0.109580      0.621424
Li	      0.03002      4.59232     -0.25665        -0.135576      0.076311      0.207071
Li	      0.04411      2.31659     -2.29643         0.167391      0.312149     -0.178264
Li	      2.18130      2.31137     -4.42913        -0.127716      0.237707      0.141365
Mn	     -0.09472      0.19901     -0.09861         2.498087      0.146579     -1.213502
Mn	     -0.02460      6.90590     -2.26301         0.845784     -2.078107     -0.237504
Ni	      2.22216      6.90463     -4.50875        -0.484614     -0.773525      0.948092
Ni	      2.20691      4.59976     -2.24029        -0.856946      0.455488     -0.669885
O	     -0.01741      4.56929     -6.85358        -0.083609      0.030156      2.390300
O	     -0.04709      2.46139     -4.38525        -1.102428     -0.721255     -0.573581
O	      2.35558      4.66118     -4.48244        -1.246604      0.607245      0.285407
O	      2.19968      4.40500      0.05683        -0.509996      0.280298     -1.113066
O	      2.13362      2.55482     -2.20646         0.378076     -0.065397      1.302285
O	     -0.00616      7.08001     -0.10761         0.007223     -0.671555     -1.249173
O	     -0.09212      4.78989     -2.23701         0.361573      1.232493      0.061297
O	      0.06998      2.11617     -0.02786         0.181378      1.040993     -0.722264
