# total energy = -237.18633177 eV
 
CRYSTAL
PRIMVEC
0.012601 6.551081 6.360604 
6.274140 0.060402 6.312817 
4.204700 4.357240 0.018167 
PRIMCOORD
36 1
Li	      4.21908      8.68846      8.51160        -0.002993     -0.056190     -0.024049
Li	      4.15169      0.09982      4.21597         0.000694      0.002351      0.037195
Li	      8.32661      4.49117      8.40204        -0.008191      0.065117      0.020830
Li	      6.37701      6.54297      4.32678        -0.032997      0.007681     -0.007633
Li	      8.19876      6.53293      6.40454        -0.021819      0.017835      0.017793
Li	      6.36486      4.58767      6.38083        -0.031306      0.000318      0.026606
Li	      6.32971      8.57545      6.47934        -0.005304     -0.040867      0.034842
Li	      8.36778      8.75195      8.42905         0.044730      0.004199     -0.050524
Li	      6.34056      6.60756      8.30181        -0.057772      0.008819      0.044680
Sc	      6.21535      2.30620      8.38376        -0.069506      0.060157      0.020282
Sc	      6.35258      4.52092     10.48770         0.015078      0.023954     -0.106691
Mn	      4.28580      6.55364      6.38966         0.087964     -0.076475     -0.010721
V	      4.16025      4.34858      0.08098        -0.024406      0.022485     -0.028799
V	      4.14403      4.24895      4.32476        -0.020575      0.032449      0.193720
Fe	      8.39630      2.33907      6.35420        -0.015604     -0.079297      0.015407
Fe	      2.20179      6.53279      8.50057        -0.028348      0.024042     -0.026781
Fe	      6.29434      8.75024     10.49035        -0.003507     -0.023378      0.118231
Fe	      8.34942      6.60899     10.45893         0.033194     -0.045832      0.095190
O	      2.06999      2.03509      2.01939        -0.001342      0.030829      0.057771
O	      4.26080      4.42196      2.20269         0.022664     -0.012429      0.060085
O	      4.23862      2.33667      4.22420        -0.003730     -0.013345      0.013193
O	      6.20232      4.26843      4.16303         0.012551     -0.008177      0.069449
O	      6.34717      2.11800      6.28269        -0.010276     -0.053466      0.002678
O	      8.47029      4.32029      6.38929         0.008143      0.060215     -0.039418
O	      2.17569      4.35891      4.19922        -0.028780     -0.051793     -0.007696
O	      4.22969      6.54451      4.31259         0.070784      0.025222     -0.057158
O	      4.17890      4.38738      6.10704         0.004767     -0.030678     -0.156568
O	      6.15320      6.56550      6.36980         0.010395      0.019671     -0.086462
O	      6.28237      4.32877      8.49726        -0.018236      0.016671      0.036628
O	      8.39462      6.59896      8.46830         0.071125      0.016523     -0.181244
O	      2.14091      6.62918      6.36539        -0.025336      0.022599      0.058873
O	      4.16896      8.84343      6.33915         0.056986      0.038157     -0.010339
O	      4.15344      6.57250      8.32097         0.106558     -0.006922     -0.003680
O	      6.33515      8.87061      8.54907        -0.044639     -0.052838     -0.089888
O	      6.24565      6.65372     10.67387        -0.117677     -0.015269     -0.046665
O	      8.37291      8.79520     10.67652         0.026711      0.067664      0.010863
