# total energy = -230.78527093 eV
 
CRYSTAL
PRIMVEC
-0.058219 6.252926 6.265765 
6.291356 -0.021830 6.230290 
4.200600 4.151089 -0.020513 
PRIMCOORD
36 1
Li	      6.24676      6.27614     12.42344         0.010452     -0.016855      0.007332
Li	      4.25939      0.15694      4.21824         0.000244     -0.021334     -0.043953
Li	      6.23972      2.03539      4.15867         0.091191      0.009235     -0.035154
Li	      6.27578      2.10633      8.32668         0.001585     -0.032659      0.041726
Li	      2.26274      2.07368      4.23649         0.000743      0.012707     -0.009740
Li	      4.20817      2.09042      6.04399         0.035887      0.021570      0.026929
Li	      2.11203      4.12834      6.22666        -0.002682      0.017324     -0.017464
Li	      4.13909      6.22570      6.19068        -0.033936     -0.011306     -0.023015
Li	      8.35860      8.19432      8.32423        -0.043064      0.007370      0.010842
Sc	      6.26785     10.33820      8.36792        -0.014654     -0.072861      0.068898
Sc	      2.16402      4.16384      2.12545         0.120502     -0.043011      0.107603
Mn	      8.34163      2.05135      6.20858         0.003601     -0.107743     -0.059295
Mn	      4.08197      8.25281      4.21905         0.117722     -0.103938      0.108735
V	      6.23496      4.14269      6.12818        -0.145197      0.052825     -0.215708
V	      6.14572      6.25077      8.24820        -0.154371      0.169790      0.185426
Co	      8.27101      6.19919     10.44757         0.101340      0.049364      0.073168
Cu	      4.18302      2.07921      2.08886         0.028352     -0.072692     -0.013298
Cu	      4.23010      4.18928      4.16015         0.062979      0.159837     -0.025305
O	      4.24038      2.22519      4.04712        -0.026789     -0.175101      0.097114
O	      2.08509      2.06972      2.14610         0.010835      0.024761     -0.018594
O	      4.22137      4.30113      2.14250        -0.069886      0.213789     -0.084704
O	      6.48353      4.17659      4.18118         0.092107      0.041141     -0.049243
O	      6.40805      2.15487      6.17784         0.000569     -0.012824      0.040185
O	      8.26425      4.12680      6.26269         0.018356      0.007412      0.006547
O	      1.82840      4.22710      4.23126        -0.102740      0.103794     -0.055677
O	      3.92871      6.24768      4.18224        -0.131324      0.044650     -0.038480
O	      4.39808      4.12182      6.16316         0.063101     -0.054510      0.096274
O	      6.31213      6.16423      6.31671         0.042913     -0.097383     -0.001063
O	      6.29701      4.20677      8.18068         0.000470      0.007160      0.028357
O	      8.14386      6.20409      8.48189         0.007432     -0.027786      0.067343
O	      2.00618      6.26754      6.22351        -0.062756      0.081056     -0.027287
O	      3.92126      8.34030      6.35972        -0.021166      0.019281     -0.151733
O	      4.30756      6.11206      8.33881         0.042893     -0.159090     -0.009188
O	      6.26106      8.23607      8.26033         0.071853      0.110805     -0.032473
O	      6.28279      6.11412     10.33523        -0.022663     -0.018455     -0.092323
O	      8.44365      8.12724     10.38101        -0.093899     -0.126325      0.037219
