# total energy = -231.01363606 eV
 
CRYSTAL
PRIMVEC
0.045323 6.352885 6.367012 
6.270538 0.031106 6.382118 
4.177203 4.243168 0.023093 
PRIMCOORD
36 1
Li	      8.32532      2.19049      6.35536        -0.026296     -0.036322     -0.061415
Li	      4.26101      8.43392      8.54238         0.060623     -0.003770      0.021768
Li	      4.14129      0.07953      4.21993         0.019649     -0.003827      0.029273
Li	      6.27241      2.22712      8.39975         0.023084     -0.012565     -0.067391
Li	      6.40319      6.28019      4.30845         0.024303     -0.042023     -0.001725
Li	      6.31584      4.31885      6.45306         0.009301      0.061721     -0.026511
Li	      6.27663      4.29800     10.55644         0.010852      0.007294     -0.012443
Li	      6.29979      8.48297      6.51696        -0.000999      0.026497      0.085101
Li	      6.30234      6.31966      8.43416        -0.007884     -0.028309     -0.034752
Sc	      4.18758      4.14187      4.33554        -0.052837      0.027504      0.002894
Sc	      4.35627      6.51864      6.41140        -0.038337      0.063779     -0.037722
Mn	      4.21133     10.52564      6.41318         0.112396      0.015229      0.004561
Mn	      8.29514      4.17918      8.48491         0.002927     -0.043486      0.045325
V	      2.13240      0.07264      2.16051        -0.016956     -0.099026     -0.047022
V	      8.36501      6.45638     10.53448         0.063346     -0.025841      0.054769
Co	      6.27029      2.14382      4.28678         0.009455      0.004975      0.003828
Ni	      8.32550      6.37140      6.42169         0.025629      0.016807      0.016547
Ni	      4.28726      4.29875      8.47388        -0.031470      0.014455      0.018594
O	      2.05443      1.89421      2.12759        -0.007110      0.022795      0.045209
O	      4.13966      4.19940      2.04661        -0.062336     -0.016201     -0.025541
O	      4.20485      2.13113      4.29960         0.034019      0.051507     -0.001839
O	      6.25130      4.28688      4.15459        -0.028876     -0.033237      0.018953
O	      6.20184      1.90003      6.36827         0.079087     -0.077682     -0.018340
O	      8.48440      4.23997      6.50330         0.067279     -0.061288      0.064484
O	      2.10588      4.34418      4.05278         0.053215      0.024984     -0.102942
O	      3.96495      6.32017      4.33215        -0.039516     -0.026378      0.051977
O	      4.23770      4.29255      6.37447         0.018507      0.055845     -0.118304
O	      6.30570      6.43827      6.38971        -0.110893     -0.030698     -0.019506
O	      6.39952      4.23028      8.46343         0.038461      0.025970     -0.004832
O	      8.32068      6.48189      8.62884         0.013812     -0.100754      0.013946
O	      2.02738      6.35763      6.39229        -0.118804     -0.002199      0.001936
O	      4.22653      8.57818      6.40356        -0.026265      0.048000     -0.010534
O	      4.16433      6.37667      8.48536        -0.033643      0.083799     -0.056165
O	      6.34601      8.74922      8.54302        -0.052597      0.104637      0.071837
O	      6.44016      6.32874     10.83553         0.039670      0.070091      0.034224
O	      8.37837      8.38816     10.57575        -0.050796     -0.082282      0.061758
