# total energy = -232.35183076 eV
 
CRYSTAL
PRIMVEC
0.030400 6.216094 6.404010 
6.261763 -0.000696 6.435372 
4.201199 4.191561 -0.027923 
PRIMCOORD
36 1
Li	      4.18653      4.23594      0.04668         0.042417      0.015264     -0.012339
Li	      2.02311      0.08121      2.03879        -0.030304      0.041598     -0.039871
Li	      8.32361      4.25447      4.42667         0.044299     -0.039013      0.033481
Li	      4.33348      6.15312      2.16326        -0.008002     -0.044675      0.044834
Li	      8.38963      4.17483      8.41578         0.000515      0.011267     -0.016876
Li	      2.11582      2.08361      4.16881        -0.013195      0.038039     -0.042563
Li	      6.40886      4.13197      6.44361        -0.023953     -0.002943      0.042974
Li	      2.14685      6.21402      4.30209        -0.011278     -0.057287     -0.019945
Li	      2.09454      4.19518      6.38757         0.052314      0.013039     -0.009274
Sc	      0.15044      4.19432      4.32058         0.049879      0.037616     -0.005736
Sc	      4.14668      6.15667      6.34808        -0.053571     -0.156920     -0.072354
Mn	      8.39315      8.29525      8.56175         0.062907     -0.027812     -0.043142
Mn	      6.33607      6.24430      8.52322         0.023280     -0.153208      0.089347
V	      4.09226      2.20530      2.11630        -0.169585      0.217844     -0.203870
V	      6.26750      2.17297      4.32705        -0.042467     -0.107191      0.133292
Co	      4.09319      4.18639      4.22183         0.130970     -0.294862      0.063216
Co	      8.37170      6.16772      6.46515         0.041949     -0.252453     -0.204790
Ni	      8.31733      2.13766      6.47210        -0.144451      0.035685     -0.114165
O	      2.21037      2.07592      2.10337         0.103210     -0.046639      0.155689
O	      4.24274      4.00713      2.09873         0.033641     -0.003705      0.102332
O	      4.23205      2.07728      4.11373        -0.001199      0.485847      0.272661
O	      6.19122      3.96877      4.18580        -0.329834      0.197100     -0.000933
O	      6.24884      2.03556      6.22550         0.107444      0.081774     -0.089354
O	      8.37664      4.18377      6.38198        -0.014454     -0.201089     -0.076973
O	      2.10863      4.14783      4.33108         0.455429      0.051432     -0.004134
O	      4.26327      6.27924      4.28320        -0.087781     -0.344413     -0.092780
O	      4.18492      4.07188      6.62905         0.055630      0.377532     -0.086780
O	      6.32277      6.21744      6.62585        -0.362495      0.055610      0.060421
O	      6.17066      4.29393      8.63704         0.093503      0.180941      0.055062
O	      8.22915      6.19759      8.58463        -0.105413      0.077955      0.029977
O	      2.15618      6.28843      6.41812         0.097338     -0.165156     -0.014434
O	      4.18271      8.31706      6.43833         0.230397     -0.009155     -0.019188
O	      4.36221      6.41015      8.47582         0.008959     -0.057352      0.117388
O	      6.33516      8.20921      8.61260        -0.120707     -0.085589     -0.007158
O	      6.29009      6.33642     10.49739        -0.011861      0.112581      0.000078
O	      8.32982      8.37090     10.55336        -0.103532      0.018339     -0.024094
