# total energy = -234.91657176 eV
 
CRYSTAL
PRIMVEC
-0.003059 6.267928 6.341169 
6.362162 -0.035881 6.374028 
4.231036 4.190261 -0.013275 
PRIMCOORD
36 1
Li	     10.57571      4.16273      6.35882         0.033148     -0.016965     -0.034951
Li	      4.19233      6.27647      2.21297        -0.006863     -0.005579      0.008205
Li	      2.21826      4.16123      2.23937         0.001720      0.008972     -0.005563
Li	      2.12777      2.29198      4.11705        -0.023246     -0.035965     -0.014801
Li	      4.23885      2.11699      6.33181        -0.040804      0.002939     -0.017043
Li	      6.31849      4.07488      6.35077         0.023812     -0.001041     -0.026885
Li	      0.13863      4.17871      4.19919         0.001406      0.056228      0.030939
Li	      2.16670      6.13794      4.20199         0.024071     -0.005623     -0.019990
Li	      2.13832      4.17070      6.12394        -0.015628     -0.010667      0.050696
Sc	      6.23210      4.24719      2.14369         0.049269      0.014840     -0.052547
Sc	      4.24410      6.22096      6.17303        -0.083138      0.150959      0.002415
Mn	      6.34781      2.04440      4.30304        -0.005879     -0.072097      0.019510
Mn	      8.52470      8.29634      8.47369        -0.055028      0.098504      0.007841
V	      8.47300      2.18769      6.33785         0.026795     -0.059084      0.041791
V	      6.46967      6.15603      8.43826        -0.078504      0.093335      0.175597
Co	      4.17328      2.12356      2.12274        -0.092320     -0.059779     -0.125812
Co	      8.42702      4.21147      4.32683         0.127037     -0.301832     -0.161327
Co	      4.17030      4.14824      4.25486        -0.180991      0.121110      0.049562
O	      2.07569      2.07910      1.97820         0.075704      0.020771      0.015293
O	      4.23092      4.14500      2.26300         0.006294      0.043274      0.052751
O	      4.16612      2.11373      4.18442         0.016167     -0.411744      0.014362
O	      6.27154      4.02955      4.24241        -0.159336      0.011502      0.057773
O	      6.48593      2.01399      6.22221        -0.145116     -0.058542     -0.006000
O	      8.47596      4.01488      6.36684        -0.009539      0.085148     -0.250724
O	      2.24901      4.19367      4.22610         0.052282     -0.014352     -0.047926
O	      4.29376      6.11350      4.20505         0.039729      0.034558      0.002642
O	      4.21615      4.16898      6.25411         0.026282     -0.040619     -0.008480
O	      6.29851      6.30264      6.63459         0.058547      0.042651     -0.052703
O	      6.24603      4.25458      8.50810         0.005422     -0.099959     -0.020693
O	      8.37427      6.35403      8.45888         0.103136     -0.031621      0.006588
O	      2.14697      6.40307      6.40917        -0.007204      0.074979     -0.014760
O	      4.12789      8.33983      6.39248         0.092546      0.010606      0.022484
O	      4.25067      6.16256      8.47613         0.010901     -0.099822      0.366513
O	      6.46809      8.31601      8.61488         0.032036     -0.003937     -0.026452
O	      6.29709      6.34293     10.38259         0.081344      0.001172      0.019492
O	      8.53339      8.37321     10.70137         0.015947      0.457679     -0.057796
