# total energy = -227.85467417 eV
 
CRYSTAL
PRIMVEC
0.013528 6.328441 6.584373 
6.245877 0.047745 6.544608 
4.163981 4.194255 0.035137 
PRIMCOORD
36 1
Li	      4.22386     10.47261      6.66806        -0.054202      0.001763      0.017805
Li	      4.04831      2.02770      2.21938         0.039104      0.109512     -0.056668
Li	      6.28145      8.41522     10.93847         0.053138     -0.005957     -0.035352
Li	      2.07156      4.18554      2.40302        -0.102714     -0.022236     -0.048026
Li	      1.97867      2.26372      4.34880         0.065959     -0.075782     -0.009614
Li	      6.23399      4.32209      6.71596         0.101038      0.041202      0.030792
Li	      0.10589      4.12270      4.37317        -0.057167      0.110220     -0.031691
Li	      2.07305      4.19680      6.40192         0.013259      0.047922      0.007263
Li	      4.25034      6.26636      6.45817         0.009367      0.013059      0.001862
Sc	      4.20811      6.36852     10.96726        -0.068066     -0.296815      0.110804
Sc	      4.23537      2.19715      6.50986        -0.082896      0.068163      0.033210
Mn	      4.22687      4.31736      8.64064        -0.083990      0.120691      0.103193
Mn	      6.27113      6.40156      8.72723        -0.014077     -0.028173     -0.000305
V	      2.18301      8.43427      6.63403        -0.099185     -0.092028     -0.170444
V	      6.07199      4.13940      2.20478         0.203044     -0.320530      0.009270
Cu	     10.40868      6.39941      8.82376         0.153338     -0.020889     -0.015157
Cu	      2.07614      6.24879      4.41231        -0.073299      0.139813      0.122734
Ni	      4.11098      4.22028      4.42807         0.181393     -0.085104      0.080365
O	      4.08315      6.26214      4.26381         0.031937      0.099769     -0.049691
O	      2.04736      1.91952      2.10919        -0.098181      0.241371      0.083149
O	      4.32163      4.03685      2.24030        -0.366518     -0.253045      0.038411
O	      4.18591      2.07919      4.45238        -0.074772      0.150444     -0.085810
O	      6.24972      4.23236      4.07396        -0.051618     -0.014765      0.119320
O	      6.37172      2.13828      6.72849         0.125893      0.022315      0.064789
O	      8.34671      4.19918      6.50786        -0.004286     -0.082287      0.018743
O	      2.09412      4.28204      4.37054        -0.056520     -0.049368      0.011807
O	      4.24391      4.24595      6.50773        -0.035730     -0.113211     -0.171146
O	      6.30942      6.36795      6.80258        -0.039923      0.163870     -0.026895
O	      6.14375      4.44354      8.77048        -0.156976     -0.001786     -0.012368
O	      8.39838      6.54752      8.67520         0.253171      0.053406     -0.198762
O	      2.07722      6.41413      6.89266         0.060276     -0.012966      0.004592
O	      3.95203      8.43776      6.64064         0.136908     -0.099154      0.120547
O	      4.06209      6.26428      8.82705         0.073913     -0.025967     -0.031896
O	      6.39550      8.53110      8.74866         0.059337      0.133045      0.010743
O	      6.27593      6.40003     10.71971        -0.037993     -0.020622     -0.066542
O	      8.27882      8.40822     11.19045        -0.002956      0.104117      0.020971
