# total energy = -227.22152265 eV
 
CRYSTAL
PRIMVEC
-0.009624 6.226600 6.423147 
6.312791 -0.005414 6.418378 
4.224038 4.164075 -0.019648 
PRIMCOORD
36 1
Li	      8.30389      2.15429      6.29438        -0.003165      0.012735      0.003336
Li	      6.43073      8.34497     10.75292        -0.037980     -0.001710      0.012330
Li	      6.24543      2.08565      8.48705        -0.101133      0.017455     -0.056059
Li	      2.13059      2.05703      4.23289        -0.011192      0.024899     -0.039624
Li	      4.23856      2.13129      6.46478        -0.035630     -0.001800      0.064875
Li	      6.35058      3.97354      6.38331         0.008042      0.022064      0.005470
Li	     10.38830      8.32423     10.65746         0.068167     -0.038901      0.027861
Li	      8.44959      6.34543     10.55801         0.038913     -0.043457     -0.055630
Li	      8.42624      8.24207      8.74336        -0.047501     -0.018817      0.110358
Sc	      6.31284      0.12904      6.32654        -0.115550     -0.049686     -0.014963
Sc	      4.24126      6.24317      6.36224         0.005413     -0.014816     -0.046522
Mn	      6.36522      4.15275      2.17654         0.025676      0.228265      0.010513
Mn	      6.29264      6.27966      8.60715         0.047361     -0.118407      0.062691
V	      8.27925      4.09689      8.53636         0.065337      0.096585      0.047956
V	      4.21036      4.10822      4.22965        -0.084864      0.037316     -0.016839
Cu	      4.24602      2.10521      2.14053        -0.048376     -0.018791      0.029194
Cu	      8.40399     10.28566     10.69962        -0.050122      0.204554      0.097889
Cu	      2.12283      4.11763      6.40144         0.046499     -0.023453     -0.086819
O	      8.45674      8.36568     10.72534        -0.051117     -0.121563      0.026682
O	      2.21430      2.17236      2.12381         0.094953     -0.253756     -0.014243
O	      4.11565      4.31436      2.16707         0.020712      0.156461     -0.047984
O	      4.17704      2.21897      4.18279         0.049837     -0.040602      0.057832
O	      6.27152      4.19354      4.12172         0.099946      0.042938     -0.035592
O	      6.29577      2.05867      6.41871         0.005410      0.010403     -0.035938
O	      8.46895      4.16005      6.69286         0.059374     -0.013511      0.004208
O	      2.23682      4.13146      4.00420         0.031434     -0.001572     -0.006895
O	      4.22159      6.03286      4.31170         0.011907      0.099154      0.015764
O	      4.11589      4.13147      6.18350         0.089522     -0.050132     -0.020171
O	      6.30419      6.28753      6.60859         0.072510     -0.104528     -0.033725
O	      6.51866      4.07314      8.58966        -0.257739     -0.145259      0.052108
O	      8.24904      6.08672      8.59115        -0.039104      0.117672      0.014657
O	      2.11290      6.17204      6.61143         0.004497      0.127407      0.056544
O	      4.33085      8.32418      6.47363        -0.048019     -0.004412     -0.146576
O	      4.33763      6.07944      8.47392        -0.001832     -0.206990     -0.144584
O	      6.23270      8.40853      8.66743         0.109857      0.093805      0.100764
O	      6.22712      6.22210     10.63391        -0.022044     -0.019553      0.001134
