# total energy = -233.89905720 eV
 
CRYSTAL
PRIMVEC
0.057685 6.209697 6.235132 
6.571623 0.022497 6.269342 
4.399259 4.180005 -0.002407 
PRIMCOORD
36 1
Li	      6.38917      4.27398      2.15125        -0.102339     -0.022312      0.017204
Li	      4.34645      0.05936      4.16974        -0.019741      0.018775      0.011878
Li	      4.47386      6.19544      2.30805        -0.016744     -0.023502     -0.011792
Li	      8.71622      4.27678      8.35806         0.028731     -0.014139     -0.025211
Li	      6.53676      6.29449      4.14386        -0.031542     -0.054939      0.020753
Li	      4.32976      4.18732      4.14244        -0.010199     -0.024117      0.042468
Li	      8.70832      6.16846      6.22873         0.026534      0.008963     -0.042206
Li	      6.67704      4.24015      6.29546         0.003288     -0.017557     -0.065410
Li	      0.22487      4.06639      4.03934        -0.006670      0.022321     -0.016338
Sc	     10.86828      4.20027      6.27513        -0.035280      0.056403      0.043010
Sc	      8.69488      2.11587      6.28068        -0.044519      0.007749      0.056809
Mn	      2.29243      4.13569      6.24317         0.049185     -0.002259     -0.046668
Mn	      4.49047      6.23127      6.20082         0.008071     -0.063298     -0.079988
V	      6.55577      2.23883      4.12129        -0.043017      0.289670      0.047034
V	      4.58302      4.13005      8.31839         0.016835     -0.040359     -0.010328
Fe	      4.19011      2.13524      2.22531         0.036718     -0.009761     -0.044309
Co	      6.69372      6.24543      8.30438         0.059028     -0.009051     -0.090237
Cu	      2.29333      6.14469      4.08373         0.117914     -0.045021     -0.051730
O	      2.25830      2.06451      2.10861        -0.115001     -0.066794     -0.035316
O	      4.35814      4.08139      2.05496         0.006268      0.063776     -0.039581
O	      4.59832      2.06687      4.10685         0.049872     -0.029951      0.003945
O	      6.64737      4.00592      4.11196         0.011533     -0.222531     -0.012411
O	      6.62239      2.06295      6.10836         0.031681     -0.033559     -0.013319
O	      8.84128      4.10997      6.19164         0.044970     -0.055267     -0.007509
O	      2.21398      4.15514      4.35433         0.027921     -0.065575      0.116943
O	      4.31790      6.22796      4.29205         0.094047      0.030917      0.092387
O	      4.45415      4.30737      6.34940        -0.018411      0.056232     -0.016614
O	      6.66850      6.35819      6.33162        -0.054574      0.062886      0.041506
O	      6.52156      4.28441      8.34445         0.042070      0.073330      0.056997
O	      8.64051      6.29161      8.22843        -0.074078     -0.020246     -0.042618
O	      2.12832      6.12780      6.38803         0.027314      0.006792      0.180187
O	      4.33459      8.24019      6.29661         0.006943     -0.042054      0.016869
O	      4.68595      6.31013      8.22468         0.038729      0.001533      0.006035
O	      6.74590      8.23070      8.30279        -0.018488     -0.015181     -0.003485
O	      6.74936      6.34495     10.30966        -0.107486      0.088366     -0.071703
O	      8.68979      8.27075     10.33634        -0.029562      0.089759     -0.027252
