# total energy = -233.78806618 eV
 
CRYSTAL
PRIMVEC
-0.022399 6.494604 6.369454 
6.255682 0.030147 6.317306 
4.186589 4.310716 0.003904 
PRIMCOORD
36 1
Li	      6.23613      6.53917     12.52972        -0.019429     -0.007549     -0.003038
Li	      6.39749     10.66611      8.52407        -0.023169     -0.004380      0.068994
Li	      8.26916      4.36748      4.21861         0.018959     -0.014646      0.012447
Li	      6.24376      2.22996      4.27864        -0.015263     -0.016928     -0.048930
Li	      4.23448      4.23651      4.34725        -0.013210     -0.016512     -0.017866
Li	      4.13682      2.27131      6.11917         0.017290      0.038734     -0.000095
Li	      4.15975      8.67038      4.35979         0.011981      0.040707      0.015967
Li	      4.14818      6.42604      6.32134         0.012354      0.013519     -0.016892
Li	      4.03198      4.56731      8.41243        -0.016121      0.052425      0.001512
Sc	      4.16908      6.44394      2.16730        -0.064263     -0.091407     -0.103522
Sc	      6.20583      6.56010      8.44780         0.076018      0.009460      0.086073
Mn	      6.19216      4.36558      6.23516        -0.155280     -0.122314      0.120421
Mn	      2.08630      6.48595      4.28802         0.015026     -0.098970      0.015638
V	      8.37287      8.61902     12.57237         0.062113      0.098352      0.139347
V	      2.13307      4.27426      2.14644         0.066167      0.109771     -0.060061
Fe	      4.20280      8.58116      8.60204        -0.167520      0.150874     -0.192029
Co	      2.15763      4.37467      6.30009        -0.021933     -0.248532      0.280150
Ni	      6.28044      6.45395      4.31299        -0.091746      0.079636     -0.057615
O	      2.08070      2.25572      2.12378         0.059140     -0.056167     -0.042470
O	      3.96803      4.30867      2.09361         0.087953     -0.014959     -0.030044
O	      4.15589      2.17852      4.12761         0.059458      0.012373      0.173133
O	      6.22896      4.41633      4.33792         0.007353     -0.116315     -0.002052
O	      6.46794      2.13778      6.39068        -0.080688      0.027443     -0.017814
O	      8.23200      4.20345      6.43034         0.006330     -0.020165     -0.066335
O	      2.02883      4.25488      4.11325         0.008609      0.037211      0.323551
O	      4.05804      6.50661      4.19352        -0.016839      0.003275      0.034126
O	      4.25439      4.32014      6.38723         0.171102      0.058048     -0.023022
O	      6.26854      6.58567      6.34372        -0.038153      0.543500      0.060242
O	      6.39257      4.32780      8.32978        -0.123577      0.009793     -0.085010
O	      8.36144      6.30382      8.48292        -0.027927      0.017067      0.017436
O	      2.07961      6.58506      6.30886         0.032400     -0.350241     -0.029296
O	      3.96261      8.71640      6.50050         0.034627     -0.031108      0.053376
O	      4.18909      6.59698      8.50577        -0.022195     -0.088282     -0.001771
O	      6.18045      8.66141      8.41071         0.188516      0.008878     -0.437809
O	      6.43646      6.49946     10.50937        -0.029980     -0.018687     -0.037005
O	      8.36942      8.66662     10.71326        -0.008100      0.006099     -0.129737
