# total energy = -91.00249421 eV
 
CRYSTAL
PRIMVEC
-2.164499 4.437888 -2.163749 
2.130559 4.402754 2.128774 
2.149245 0.018205 -6.440617 
PRIMCOORD
16 1
Li	      0.03209      4.65756     -4.57737         0.110720     -0.128348      0.680637
Li	      0.04059      4.63646     -0.28992        -0.138606      0.083681      0.218755
Li	      0.04454      2.33881     -2.31846         0.185645      0.338677     -0.195097
Li	      2.20223      2.33354     -4.47162        -0.132508      0.259463      0.155146
Mn	     -0.10599      0.22215     -0.10991         2.743450      0.157155     -1.419344
Mn	     -0.02483      6.97215     -2.28472         0.884876     -2.215910     -0.242546
Ni	      2.24348      6.97087     -4.55201        -0.496754     -0.816370      1.022807
Ni	      2.22808      4.64388     -2.26178        -0.912622      0.461775     -0.722636
O	     -0.01758      4.61312     -6.91933        -0.111908      0.020133      2.733181
O	     -0.03735      2.50607     -4.41713        -1.136085     -0.774378     -0.610035
O	      2.37818      4.70589     -4.52544        -1.430242      0.646898      0.293107
O	      2.22078      4.44725      0.05738        -0.549729      0.329855     -1.214240
O	      2.14373      2.60056     -2.23797         0.403009     -0.051276      1.355665
O	     -0.00621      7.14793     -0.10864         0.003085     -0.747415     -1.325536
O	     -0.09301      4.83583     -2.25847         0.428766      1.292974      0.064053
O	      0.07065      2.13647     -0.02813         0.148904      1.143087     -0.793918
