# total energy = -236.05041527 eV
 
CRYSTAL
PRIMVEC
0.023320 6.250676 6.370842 
6.429192 0.013356 6.380683 
4.295290 4.182417 -0.000058 
PRIMCOORD
36 1
Li	      4.34993     10.31416      6.42282        -0.049580      0.014147      0.009154
Li	      6.44398     10.31836      8.45743        -0.035986      0.007826      0.022936
Li	      6.51020      8.28985     10.50198        -0.002485     -0.030426     -0.070235
Li	      6.31762      2.32167      8.53804         0.028898     -0.050984      0.087789
Li	      8.52490      4.17803      8.52028         0.028268     -0.005255      0.001431
Li	      6.46534      4.25420      6.47759         0.013706     -0.047145      0.019792
Li	      6.43111      4.19382     10.54318        -0.048736     -0.024485      0.041901
Li	      6.40114      8.37629      6.41011         0.043271     -0.018731      0.000219
Li	      4.43846      4.13079      8.52889        -0.004305      0.033145     -0.030788
Sc	      4.36624      4.14903      4.15676        -0.018835      0.217829     -0.099605
Sc	      6.48403      6.17738      8.48718         0.018395      0.130568      0.234928
Mn	      8.50450      2.13368      6.48118        -0.092159      0.080081      0.034902
Mn	      2.15679      2.16208      4.20526        -0.068242     -0.003152     -0.181604
V	      4.57208      2.12688      6.44060        -0.163651     -0.125761      0.052510
V	      4.23664      6.29342      6.38153        -0.617602     -0.211980     -0.068569
Fe	      8.59146     10.35285     10.70060         0.142004      0.208714     -0.160569
Co	      4.36044      8.38735      8.42580        -0.053840     -0.049202      0.144838
Co	      8.48104      6.26347     10.62930         0.129538      0.056010     -0.001840
O	      2.36257      2.11235      2.20340         0.108945      0.000781      0.069312
O	      4.35528      4.03350      2.11562         0.007060      0.138588      0.183012
O	      4.34480      2.06033      4.43535        -0.028348     -0.035945      0.172838
O	      6.52401      4.34610      4.20317        -0.025241      0.142854      0.060587
O	      6.31478      2.10578      6.47243         0.230897     -0.013850      0.067211
O	      8.57533      4.33176      6.30912        -0.041919      0.018843      0.047194
O	      2.25121      4.13949      4.20743        -0.049030     -0.116564      0.102617
O	      4.25188      6.22507      4.42088         0.092082      0.007927     -0.595566
O	      4.31615      4.13335      6.34419         0.028286      0.005921     -0.115828
O	      6.35247      6.29166      6.30875        -0.472060     -0.046712     -0.183053
O	      6.44265      4.21077      8.51006         0.034127     -0.023356     -0.053135
O	      8.55571      6.31381      8.39332         0.030749      0.005044     -0.139172
O	      2.30613      6.24015      6.35542         0.592971     -0.226655      0.026824
O	      4.24398      8.19827      6.35103         0.283954     -0.045894     -0.051020
O	      4.32334      6.31796      8.33365         0.014462      0.250210      0.496578
O	      6.21693      8.31725      8.50661        -0.069842     -0.030001     -0.124973
O	      6.35597      6.24843     10.58633         0.053045     -0.018074     -0.062235
O	      8.48871      8.42360     10.66422        -0.038797     -0.194319      0.061620
