# total energy = -232.00576747 eV
 
CRYSTAL
PRIMVEC
0.041551 6.181046 6.447644 
6.401314 0.015746 6.472707 
4.289703 4.159797 -0.011265 
PRIMCOORD
36 1
Li	      2.17872      6.18251      8.58961         0.000607     -0.017665     -0.054181
Li	      4.30949      8.27167      8.55970        -0.018527     -0.000190     -0.011379
Li	      6.32467      6.35250      4.41076         0.009534     -0.070355      0.100451
Li	      8.39627      6.32662      6.47695        -0.022202     -0.003896      0.028093
Li	      4.40651      8.14150      4.29383         0.002939     -0.005360      0.042254
Li	      2.29003      6.14652      4.26682         0.023127     -0.001981      0.047188
Li	      6.47492      8.10090      6.37689        -0.022339      0.037296      0.002526
Li	      4.40806      6.22614      6.39172         0.014487     -0.041900      0.042879
Li	      6.43760      6.24077      8.51911        -0.049883      0.045521      0.028677
Sc	      4.28955      4.14579      0.02936         0.047611     -0.003497     -0.036631
Sc	      4.22328      0.10805      4.23860         0.002656      0.029486     -0.060800
Mn	      6.44120      8.27141     10.70529         0.038774     -0.010094      0.028785
Mn	      4.18920      4.16774      4.30468         0.068996     -0.011527      0.044130
V	      2.27167      8.13429      6.45437         0.001701      0.007412     -0.115091
V	      8.55026      8.22191      8.58582         0.001834      0.036234      0.068668
Fe	      6.36817      4.28954      6.52190         0.003555     -0.287055     -0.096722
Cu	      4.36375      6.23438      2.26050        -0.000834     -0.020771     -0.015567
Ni	      2.13799      4.18339      2.21617        -0.033056      0.048202     -0.024881
O	      2.10417      2.11521      1.90881         0.033238     -0.056823      0.004346
O	      4.22143      4.26094      2.08070         0.122680     -0.155159     -0.036362
O	      4.22874      2.16306      4.25115        -0.067971     -0.050308     -0.025331
O	      6.33614      4.06349      4.38520        -0.019892      0.056711     -0.078876
O	      6.59146      2.13937      6.27272        -0.071146     -0.039940     -0.148963
O	      8.53774      4.06860      6.41526        -0.018357      0.018984      0.013779
O	      2.24201      4.15101      4.25052        -0.024199      0.019670      0.114063
O	      4.31712      6.04705      4.38717        -0.029923      0.049178      0.047762
O	      4.36232      4.10910      6.64062        -0.082932     -0.009926     -0.068184
O	      6.46844      6.13516      6.48295        -0.060855      0.222230      0.044123
O	      6.41608      4.05025      8.53314        -0.018114      0.160584      0.076693
O	      8.62108      6.35563      8.62953         0.019540     -0.061887      0.049639
O	      2.12037      6.34522      6.44610         0.053964     -0.092269     -0.000562
O	      4.19240      8.29708      6.46792         0.097872      0.064998      0.000490
O	      4.31648      5.97786      8.68781        -0.001921      0.103684     -0.004583
O	      6.61043      8.26822      8.72130        -0.054782     -0.012349      0.009422
O	      6.33975      6.34257     10.84282         0.020022     -0.026163     -0.045770
O	      8.66063      8.31643     10.75911         0.033798      0.078925      0.029912
