# total energy = -230.31682423 eV
 
CRYSTAL
PRIMVEC
-0.027424 6.666325 6.369364 
6.334718 -0.004902 6.347171 
4.188867 4.395613 0.031261 
PRIMCOORD
36 1
Li	      8.47070      8.76823     12.44258         0.037690      0.002647      0.011073
Li	      8.61568     10.70130     10.58347        -0.028701     -0.037284      0.022390
Li	      6.57373      8.60560     10.57926        -0.036789      0.089537     -0.002619
Li	      8.32293      4.49505      8.53748         0.001241      0.043471     -0.010903
Li	      6.14545      4.65591     10.56827         0.026210     -0.021798      0.020536
Li	      8.32974      6.92150     10.65030         0.097805     -0.034690     -0.029497
Li	      1.99493      4.62497      6.40154        -0.025423      0.033867      0.010643
Li	      8.46162      8.71111      8.71662         0.035074      0.004689     -0.033822
Li	      6.22560      6.76815      8.72702         0.026495      0.068393     -0.092184
Sc	      2.20520      6.57815      8.46127        -0.065226     -0.102331      0.075569
Sc	      8.40687      6.55575      6.39993         0.008752     -0.061352      0.076556
Mn	      4.19259      8.88168      8.46922        -0.108377      0.041958      0.319248
Mn	     10.49280      6.64578      8.51290        -0.018875     -0.009416     -0.110982
V	      4.02672      4.46123      4.27414        -0.079791     -0.097603      0.023568
V	      6.35814      4.31286      6.36701         0.127004     -0.007711      0.029574
Fe	      6.22929      6.59732      4.29654        -0.148257      0.126768      0.109223
Cu	      0.08956      6.59838      6.20002         0.024737      0.039984      0.112489
Cu	      4.20152      6.71875      6.42531        -0.016990      0.088812      0.161713
O	      6.34652      6.62005     10.67200         0.018965      0.030371     -0.084886
O	      8.45647      8.83187     10.56318         0.004146     -0.000145      0.002185
O	      2.04755      2.18454      2.27130         0.059222     -0.080477      0.003592
O	      4.19370      4.61104      2.26496         0.051048     -0.014044     -0.016187
O	      4.08282      2.41079      4.14033         0.008989      0.036916     -0.034049
O	      6.10233      4.52404      4.29476        -0.073979      0.003211     -0.066719
O	      6.28329      2.32096      6.27827         0.022680     -0.000123     -0.038665
O	      8.15017      4.47535      6.25280        -0.010456      0.046807     -0.067816
O	      2.22336      4.27404      4.31870         0.120528      0.064709      0.020450
O	      4.21580      6.44002      4.38365         0.047560      0.025722     -0.047779
O	      4.33369      4.26860      6.22217         0.008968     -0.025276      0.045576
O	      6.26186      6.42183      6.31378         0.209980     -0.081993     -0.003021
O	      6.31599      4.20852      8.27895        -0.034638     -0.139611     -0.017637
O	      8.54246      6.56373      8.41333        -0.036274      0.027225     -0.047057
O	      2.23219      6.68377      6.44098        -0.353338      0.017861     -0.052627
O	      4.14673      9.06213      6.57867         0.070492     -0.001698     -0.243211
O	      4.20900      6.76260      8.44995        -0.030141     -0.125889      0.022900
O	      6.12549      8.94801      8.52776         0.059671      0.048492     -0.067625
