# total energy = -232.20665423 eV
 
CRYSTAL
PRIMVEC
0.008796 6.554129 6.276793 
6.282428 0.014219 6.270916 
4.204949 4.382288 -0.006702 
PRIMCOORD
36 1
Li	      0.16529      6.60507      6.33549         0.008709      0.013420      0.001920
Li	      2.03087      2.06983      0.07839        -0.019820     -0.027766      0.062303
Li	      6.16647      4.39443      2.02503        -0.009202      0.000475      0.030149
Li	      4.20791      2.28825      2.14178         0.030802     -0.006497      0.045831
Li	      6.30371      8.73042     10.41146         0.019964      0.026029     -0.010331
Li	      2.10117      2.23406      4.08550        -0.007567      0.015757     -0.017025
Li	      4.15560      4.36044      4.09113        -0.037726     -0.007450      0.053901
Li	      2.07458      6.50222      4.28774        -0.010580     -0.063715      0.024057
Li	      2.09652      4.49702      6.31252        -0.032727      0.089996      0.043932
Sc	      6.31375      4.31647      6.25947         0.018503     -0.058150     -0.145090
Sc	      4.06411      6.59633      6.28002        -0.050246      0.098291     -0.050959
Mn	      8.38275      6.54847      6.23634         0.024970     -0.049384     -0.079879
Mn	      8.33011      8.73616      8.38723        -0.144497      0.028794      0.001265
V	      4.17663      0.07075      4.13176        -0.122577     -0.005845      0.055732
V	      4.24075      8.77297      4.27480         0.148007     -0.090160      0.107799
Fe	      2.28743      4.25028      2.10483        -0.044125      0.021824     -0.102143
Ni	      4.24801      6.47319      2.14117         0.042633     -0.008801      0.019562
Ni	      6.31852      6.63968      8.37244         0.005409     -0.024887     -0.016599
O	      2.06303      2.35123      2.06564         0.091597     -0.044249      0.034905
O	      4.17955      4.39749      2.15272         0.099214     -0.057190     -0.027395
O	      4.23208      2.01132      4.29568        -0.005024      0.013917     -0.014608
O	      6.52658      4.34848      4.20250         0.053560     -0.014764     -0.010634
O	      6.13611      2.24964      6.31549        -0.031319      0.005746     -0.116417
O	      8.37760      4.32697      6.20971        -0.053845      0.031679      0.007818
O	      1.95898      4.45165      4.04571        -0.082961      0.006581      0.066971
O	      4.20308      6.76317      4.19071        -0.017565      0.047111      0.132825
O	      4.21627      4.46103      6.33737        -0.014805     -0.032614      0.041052
O	      6.38104      6.47171      6.29818         0.017128     -0.039162     -0.120700
O	      6.17467      4.38605      8.42885        -0.008843      0.025253     -0.023971
O	      8.38975      6.45185      8.21766         0.005776     -0.013181     -0.015348
O	      2.12571      6.58416      6.27514         0.104100     -0.011055      0.020545
O	      4.21860      8.70640      6.07045        -0.010058      0.013362     -0.024101
O	      4.24776      6.65460      8.42354        -0.060576     -0.005094      0.000962
O	      6.45377      8.66294      8.39837         0.072013      0.104374     -0.055145
O	      6.14439      6.42463     10.43015         0.009438      0.016224      0.119969
O	      8.48440      8.91646     10.33028         0.012241      0.001131     -0.041153
