# total energy = -235.52842992 eV
 
CRYSTAL
PRIMVEC
-0.019153 6.500384 6.184865 
6.313531 -0.040858 6.206437 
4.202030 4.341666 -0.020076 
PRIMCOORD
36 1
Li	      6.27377      0.05950      6.23334        -0.037324      0.049900     -0.011233
Li	      8.19093      2.31479      6.18690         0.054210      0.035632      0.013569
Li	      8.34791      4.24759      4.14232         0.007187     -0.022018      0.008550
Li	      6.36824      2.12701      4.22864        -0.044006     -0.000198     -0.029788
Li	      6.32333      2.16515      8.13793        -0.022632      0.009992      0.099022
Li	      6.36177      6.42822      4.11035         0.010939      0.003044     -0.045179
Li	      6.42019      4.15829      6.17460        -0.087295      0.035121     -0.030012
Li	      4.29131      6.50707      6.20254         0.040381     -0.046163     -0.006568
Li	      6.31591      6.42426      8.27149        -0.021929     -0.029756      0.024249
Sc	      4.24805      4.43202      4.09081         0.036418     -0.052273     -0.054015
Sc	      8.47770      6.36314      6.15259        -0.037585     -0.074386      0.050879
Mn	      4.20899      8.63516      8.24601        -0.045470      0.001131     -0.001271
Mn	      8.35320      6.50487     10.36847        -0.059424      0.006894      0.014551
V	      2.13656      6.54789      8.17467        -0.032971      0.025359      0.092828
V	      4.27240      4.32544      8.25482         0.118660      0.023373     -0.071490
Fe	     10.44034      8.68093     10.40939         0.092708     -0.095900     -0.002731
Fe	      6.27896      8.50229      6.18797         0.002621      0.182555     -0.047923
Cu	      8.31163      4.24582      8.18527         0.020237      0.046172      0.028001
O	      2.25822      1.96668      2.00303         0.058497     -0.078736     -0.017358
O	      4.26770      4.34461      2.05069         0.042751      0.021018     -0.042414
O	      4.20625      2.24418      4.01374         0.007895      0.007838     -0.011880
O	      6.26432      4.36307      3.89866         0.025577      0.010812      0.033289
O	      6.24813      2.17571      6.18540         0.021198     -0.012142     -0.029645
O	      8.36361      4.33101      6.26831         0.030078      0.007528     -0.167208
O	      2.04234      4.38424      4.07507        -0.002416      0.002327      0.122423
O	      4.01237      6.55174      4.14325        -0.056945      0.010605     -0.007049
O	      4.12118      4.28916      6.17260         0.088583     -0.026000      0.084223
O	      6.32593      6.60682      6.13076         0.016623     -0.159536      0.044315
O	      6.23547      4.34131      8.40478        -0.143762     -0.000609     -0.022201
O	      8.35585      6.71352      8.25760        -0.024636      0.079872      0.014708
O	      2.07961      6.32587      6.33022         0.000273     -0.030376     -0.201967
O	      4.29125      8.59837      6.23733        -0.077799      0.000049      0.097565
O	      4.08944      6.37282      8.26765         0.119402     -0.015192     -0.014755
O	      6.31077      8.76126      8.21568        -0.043109     -0.032233      0.029869
O	      6.43757      6.32975     10.38549         0.067164      0.104215      0.005989
O	      8.46492      8.59977     10.30808        -0.124099      0.012079      0.050656
