# total energy = -235.92304779 eV
 
CRYSTAL
PRIMVEC
0.015416 6.328757 6.326321 
6.461681 0.016033 6.326520 
4.316921 4.228352 0.001618 
PRIMCOORD
36 1
Li	      6.46476      0.12431      6.37470         0.023709      0.082032     -0.031146
Li	      8.54991      2.10793      6.34474        -0.038789     -0.020641      0.026146
Li	     10.55846      6.30908      8.37629         0.012277     -0.012589     -0.012191
Li	      4.22158      4.24147      4.19898        -0.060482      0.012200     -0.000300
Li	      8.67466      6.36241      6.50009         0.012926     -0.014676     -0.075651
Li	      8.66181      6.33130     10.36093         0.024641     -0.029127      0.009331
Li	      2.21965      4.22858      6.32815         0.018400      0.028157     -0.004493
Li	      8.60590      8.21165      8.43049         0.000336     -0.002520      0.027003
Li	      6.69033      6.38100      8.35474        -0.036104      0.007301     -0.023938
Sc	      4.33659      0.04848      4.28241         0.060704      0.004521     -0.028281
Sc	      6.48553      4.23266     10.48575         0.010458      0.001350     -0.020098
Mn	      6.40021      4.24474      2.09184         0.041497      0.001135     -0.038948
Mn	      4.33686      8.49915      8.36228         0.032120     -0.058509     -0.022646
V	      4.27971      6.27750      6.34293         0.029422      0.018349     -0.020361
V	      2.16596      2.16582      4.24001        -0.016392      0.027022      0.036428
Fe	      6.56001      8.39020     10.58713        -0.022110      0.037518     -0.024173
Fe	      6.47857      4.18929      6.49668        -0.079069      0.047275     -0.044009
Ni	      8.64704      4.34750      8.38215        -0.039563     -0.115127      0.020891
O	      2.21265      1.99722      2.20348        -0.044990      0.012906     -0.097510
O	      4.23983      4.07638      2.01754         0.078391     -0.001521      0.016648
O	      4.31750      2.13326      4.19760         0.053239      0.002050     -0.074247
O	      6.49427      4.26771      4.14731         0.000049     -0.061128     -0.004182
O	      6.45058      2.23005      6.20079        -0.020918     -0.059451      0.031445
O	      8.47339      4.23392      6.31004         0.063732     -0.000628     -0.100653
O	      2.12499      4.12439      4.18716        -0.001018      0.054324      0.063251
O	      4.36796      6.35986      4.34220        -0.057220     -0.010111      0.050131
O	      4.41734      4.43298      6.38944        -0.021555     -0.030635      0.015511
O	      6.36518      6.25305      6.22613        -0.015799     -0.013180      0.043735
O	      6.52941      4.21019      8.42337        -0.075839     -0.018191      0.081476
O	      8.63095      6.32764      8.42743        -0.022303      0.009634     -0.024160
O	      2.33652      6.29766      6.47958        -0.022057      0.027324      0.069678
O	      4.36430      8.23650      6.28011         0.001026      0.039729      0.100796
O	      4.38015      6.53881      8.38564         0.006906      0.049701      0.019751
O	      6.42588      8.60512      8.55298         0.070614      0.013109     -0.012293
O	      6.42768      6.38384     10.61229         0.010275     -0.031950      0.024741
O	      8.60734      8.52004     10.50928         0.023485      0.004347      0.022318
