# total energy = -239.31864282 eV
 
CRYSTAL
PRIMVEC
0.002319 6.473112 6.368973 
6.237914 0.002350 6.368579 
4.165890 4.322185 -0.005426 
PRIMCOORD
36 1
Li	      2.11650      0.03238      2.17828         0.007345      0.042048      0.036574
Li	      4.13781      8.61293      8.47935        -0.029247     -0.005368      0.003740
Li	      0.10067      2.28773      2.15294        -0.027298     -0.011190      0.019597
Li	      1.90317      4.19169      2.20068        -0.060615     -0.052634      0.005053
Li	      2.05350      2.18390      4.13924         0.018775     -0.052687     -0.069739
Li	      6.23842      4.33408      6.48724         0.008840      0.018431     -0.016319
Li	      0.06750      4.24973      4.14260        -0.015133      0.016295      0.018040
Li	      6.25458      8.55512      6.45652        -0.025665     -0.037805      0.088288
Li	      6.21811      6.43501      8.46505         0.000082     -0.004556     -0.009812
Sc	      4.20129      4.25090      0.14593        -0.024763     -0.016085      0.066947
Sc	      4.18116      4.30927      4.14166         0.048793     -0.091160     -0.006558
Mn	      8.22674      6.48595      6.41540         0.040910     -0.090627     -0.053743
Mn	      4.27257      6.54728      6.38290         0.023647      0.029098      0.051086
V	      4.13094      6.47389     10.55250        -0.012618      0.046862     -0.042739
V	      8.33691      6.39905     10.48786        -0.052331      0.019658     -0.003791
Fe	      2.05453      2.19278      0.17155         0.004865      0.074634     -0.169974
Fe	      6.24883      8.62715     10.48243        -0.072045      0.032411      0.158116
Fe	      4.26294      4.38963      8.44492        -0.196683      0.021949      0.065571
O	      2.05538      2.17023      2.02423         0.011504     -0.007807      0.171032
O	      4.18517      4.30956      2.13494         0.003059     -0.012506     -0.017913
O	      4.20132      2.13379      4.23594        -0.062165      0.087366      0.018452
O	      6.31013      4.22900      4.23103        -0.051427      0.022846      0.016426
O	      6.22394      2.07992      6.29049        -0.010094      0.009370     -0.015605
O	      8.33469      4.28431      6.23086         0.034394     -0.001799      0.089723
O	      2.09369      4.50779      4.23252        -0.001965      0.049987     -0.001405
O	      4.06899      6.40190      4.25908        -0.044775      0.028283     -0.012143
O	      4.15406      4.30542      6.39889        -0.010382      0.039444     -0.090229
O	      6.24240      6.51842      6.34219        -0.032125     -0.024833     -0.004347
O	      6.14166      4.30987      8.50063         0.163529      0.013428      0.011333
O	      8.28498      6.57323      8.66961         0.076445      0.000358      0.036591
O	      2.11773      6.60504      6.16569         0.022367     -0.062715     -0.048866
O	      4.09227      8.65640      6.38331         0.065428      0.012505     -0.043428
O	      4.18276      6.41954      8.57498         0.004847      0.008002     -0.100676
O	      6.36867      8.64810      8.56950         0.010244     -0.000509     -0.175451
O	      6.24239      6.53912     10.65906         0.105063     -0.017062     -0.012256
O	      8.27913      8.61954     10.61926         0.079197     -0.083633      0.038423
