# total energy = -228.22990526 eV
 
CRYSTAL
PRIMVEC
-0.014625 6.486885 6.158473 
6.285653 0.000951 6.143127 
4.203890 4.328026 -0.013485 
PRIMCOORD
36 1
Li	      6.26496      0.05078      6.16774         0.016651     -0.038579      0.022564
Li	      2.14263      8.51507      6.16653        -0.064652      0.000623     -0.002821
Li	      2.09164      0.13370      1.94513        -0.022947      0.027635      0.024578
Li	      4.09018      8.57793      8.10582        -0.028924     -0.021777      0.031053
Li	      6.36246      8.46782     10.28021        -0.032981     -0.049254     -0.021540
Li	      8.41552      4.30119      8.04014         0.059023     -0.030416     -0.006095
Li	      6.45625      4.21739      6.16884        -0.005183     -0.021997     -0.027144
Li	      8.22231      6.60226     10.36326        -0.008734     -0.039030     -0.000470
Li	      3.99110      6.67628      6.23705        -0.013902     -0.043849      0.008286
Sc	      4.26831      4.33982      4.08885        -0.028969      0.091750     -0.153013
Sc	      6.13891      8.83850      6.20121        -0.158426      0.191969      0.061476
Mn	      8.40541     10.79410     10.27044         0.014456     -0.172731     -0.078667
Mn	      6.29211      2.17073      8.14206         0.099105     -0.056326      0.037059
V	      6.32600      6.50681      4.13442        -0.170172      0.016293     -0.151592
V	      8.37850      8.61840      8.21161         0.056291     -0.012135      0.190501
Ni	      4.26014      2.10985      6.12208         0.045503      0.047553     -0.018010
Ni	      4.17944      8.66426      4.14950        -0.004670     -0.046825      0.070374
Ni	      6.28677      6.43535      8.18408         0.065036     -0.083291     -0.074963
O	      1.94945      2.20662      2.19032         0.005527      0.031836      0.116117
O	      4.17146      4.60154      2.07197         0.027351      0.026510      0.081311
O	      4.11208      2.25450      3.99436        -0.064631     -0.008012     -0.015394
O	      6.36217      4.48942      4.07661         0.089646      0.186431      0.051176
O	      6.28660      2.20620      6.28261         0.131349      0.028258     -0.053205
O	      8.40834      4.42753      5.98921        -0.035036     -0.094709      0.026788
O	      2.12058      4.19236      4.12637         0.153217     -0.025590      0.016888
O	      4.29848      6.49589      4.01436         0.060768     -0.075085     -0.032993
O	      4.17218      4.26506      6.26039        -0.037556      0.077457      0.045712
O	      6.33021      6.51289      6.00322        -0.047239      0.019745     -0.063239
O	      6.21616      4.21526      8.21775        -0.069262     -0.037007     -0.124722
O	      8.49248      6.57885      8.17078         0.031340      0.066752      0.075979
O	      2.07287      6.45946      6.15478         0.017311     -0.144491     -0.035210
O	      4.15239      8.62696      6.18194         0.083885     -0.027236      0.100646
O	      4.22816      6.30155      8.27351        -0.112816      0.015450      0.050993
O	      6.41877      8.50031      8.21704        -0.025476      0.079277     -0.044662
O	      6.17135      6.39807     10.19463         0.055520      0.063570      0.033212
O	      8.38511      8.58463     10.08213        -0.080405      0.057228     -0.140971
