# total energy = -234.43813454 eV
 
CRYSTAL
PRIMVEC
0.079986 6.415297 6.433435 
6.304681 0.045264 6.469785 
4.228003 4.324464 0.005858 
PRIMCOORD
36 1
Li	      0.15178      6.30771      6.37913         0.047070     -0.010525     -0.047861
Li	      6.44800     10.47846      8.47668         0.026527      0.020689     -0.109671
Li	      4.54126      8.61224      8.50002        -0.002180      0.012078     -0.056491
Li	      6.40536      8.58769     10.46850         0.083748      0.004503     -0.089020
Li	      6.29410      4.42531      6.44370        -0.003123      0.004766     -0.030619
Li	      6.34957      8.63037      6.63558        -0.034049      0.026925     -0.028492
Li	      4.24661      6.49887      6.46332        -0.018632      0.055237     -0.006202
Li	      8.24060      8.66515      8.44713         0.012826      0.109983     -0.089963
Li	      6.43495      6.71842      8.53804        -0.066471      0.032580     -0.072543
Sc	      2.21544      8.51538      6.41555        -0.066225     -0.190368     -0.120015
Sc	     10.45804      6.55179      8.67468         0.059790     -0.034415      0.076571
Mn	      6.39340      6.46109      4.34436        -0.024381     -0.084752      0.017939
Mn	      4.32952      4.26844      4.40115         0.064950     -0.007087      0.071659
Mn	      4.25824      2.17704      6.43920        -0.015789      0.016239     -0.054740
V	      4.36616      6.47564     10.35899         0.045259     -0.055464      0.298663
V	      8.39697      4.36411      8.64710         0.026269      0.467957     -0.277636
Co	      4.25621      8.60915      4.36795        -0.130699      0.091614      0.132075
Cu	      2.05306      6.42210      4.39628        -0.074548      0.205939     -0.087841
O	      6.39587      8.62717      8.58025         0.033634     -0.052716     -0.022805
O	      2.05396      2.27228      2.19633         0.039224      0.364654      0.067390
O	      3.98128      4.37109      2.32652        -0.183045     -0.054047     -0.047373
O	      4.33654      2.00343      4.28899        -0.033568      0.067802     -0.020472
O	      6.53701      4.51787      4.25893        -0.038098     -0.055024      0.057731
O	      6.25424      2.19713      6.61242         0.029721     -0.018313      0.205879
O	      8.40905      4.44839      6.72112        -0.029878     -0.129403      0.392862
O	      2.00224      4.10325      4.24363         0.032006     -0.193857     -0.208293
O	      4.13310      6.57268      4.33251         0.378437     -0.000282     -0.103044
O	      4.31473      4.11502      6.42664        -0.022824     -0.055277      0.082575
O	      6.53280      6.45862      6.28001        -0.048720      0.004763      0.082566
O	      6.49904      4.29866      8.83016         0.099887      0.008755     -0.037836
O	      8.40491      6.35105      8.79674        -0.144000     -0.779361      0.003431
O	      2.13336      6.51553      6.35323         0.037060      0.094315      0.514762
O	      4.23000      8.59552      6.30645         0.062207      0.033986     -0.000748
O	      4.33003      6.44227      8.64569         0.045036     -0.017964     -0.465007
O	      6.30911      6.27035     10.79009        -0.231079     -0.010437     -0.023994
O	      8.60878      8.88850     10.81563         0.043660      0.126508     -0.003439
