# total energy = -88.84439576 eV
 
CRYSTAL
PRIMVEC
-1.977608 4.058051 -1.978908 
1.888357 3.967914 1.887757 
1.943219 0.046678 -5.810752 
PRIMCOORD
16 1
Li	      1.76974      5.74113     -3.73560         0.720767      0.690923     -0.711908
Li	      1.79693      3.85750     -5.55319         0.560351     -0.000192     -1.426242
Li	     -0.01253      1.92735     -1.87263        -0.378906     -0.336835      0.274705
Li	      1.80843      3.81420     -1.89705         0.194146      0.016162      1.375646
Mn	      3.61256      3.81419     -3.69878         5.735769      0.229630     -1.517338
Mn	     -0.03424      5.74050     -1.93375        -2.642213      3.612380      1.294574
Ni	      0.00129      3.85612     -3.76290        -2.566009     -1.641928     -0.918597
Ni	      1.78314      1.92897     -3.66292         0.757812     -3.231535     -0.826937
O	     -0.02545      3.93738     -5.63896        -1.031890     -0.187524     -2.408012
O	      1.69924      5.78015     -1.90299         3.417435      0.284329      0.403166
O	      1.87907      3.77446     -3.72952        -0.868632      1.576079      0.017245
O	      1.79640      3.63879      0.03225         0.198131      0.061817      1.570123
O	     -0.06891      5.70283     -3.66687        -0.185531      2.233284     -3.858795
O	     -0.06412      5.87157     -0.14455        -0.833751      0.903474      3.595038
O	     -0.11755      3.98773     -1.88761        -1.082992     -3.142596      1.557190
O	      0.05586      1.75310     -0.01803        -1.994488     -1.067466      1.580142
