# total energy = -235.79308966 eV
 
CRYSTAL
PRIMVEC
0.014205 6.373386 6.198767 
6.442021 0.005682 6.208042 
4.308997 4.269905 -0.010940 
PRIMCOORD
36 1
Li	      0.08057      6.40005      6.21103        -0.008239      0.021289     -0.004743
Li	      8.48782      2.24915      6.26129         0.003014      0.065206      0.022967
Li	      2.15251      6.41314      8.13081         0.047488      0.016100      0.011294
Li	      6.38855      2.24306      8.26414         0.007351      0.002518      0.005889
Li	      8.51384      4.23439      8.20313        -0.017441     -0.002752      0.001098
Li	      6.55612      4.21396      6.32120         0.014677      0.020021     -0.016892
Li	      4.22951      6.32401      6.25494         0.000446     -0.014419      0.036783
Li	      4.44744      4.21022      8.29369        -0.033332      0.002578     -0.001428
Li	      6.46825      6.32178      8.28276        -0.043628      0.014785     -0.000812
Sc	      6.38067      6.31418      4.08485         0.086628     -0.069467     -0.000996
Sc	      8.62761      6.31992      6.37788        -0.012732     -0.032981     -0.118757
Mn	      4.28366      4.27012      4.08381         0.094685     -0.072169      0.057241
Mn	      6.38731      4.30510     10.29393        -0.044340      0.033236     -0.008327
Mn	      2.19842      4.29863      6.25143        -0.010791     -0.008126     -0.004760
V	      4.23751      8.48198      8.14336        -0.000284     -0.196631      0.114875
V	      6.60701      8.50508     10.32102        -0.084249      0.116452      0.016311
Co	      8.64091      4.28356      4.17599        -0.092564      0.103882     -0.113221
Ni	      2.16030      6.33209      4.09096         0.021879      0.004292      0.057049
O	      2.28510      2.10291      2.03039        -0.013160      0.044505      0.023902
O	      4.31323      4.04333      2.15767        -0.019207      0.040681      0.059762
O	      4.32691      2.26937      4.08291        -0.081492     -0.139090     -0.048362
O	      6.51083      4.22376      4.13284         0.392944     -0.046275      0.081026
O	      6.41093      2.17621      5.98906         0.008074      0.020949     -0.028504
O	      8.58626      4.31076      6.17252         0.046117     -0.040884     -0.490140
O	      1.99232      4.20264      4.07934        -0.095450     -0.130657     -0.032534
O	      4.32882      6.23944      4.07373        -0.001852     -0.092207     -0.022310
O	      4.20053      4.25011      6.07007        -0.007780      0.019363     -0.097995
O	      6.53182      6.55580      6.16729         0.024992      0.027501     -0.030801
O	      6.40019      4.27668      8.43283        -0.015222     -0.031221      0.089743
O	      8.65141      6.40080      8.29935         0.023976      0.022658     -0.054859
O	      2.18296      6.18867      6.14832        -0.006635     -0.079380      0.055528
O	      4.45446      8.51353      6.19526        -0.053205      0.043806     -0.055734
O	      4.34105      6.65376      8.32592         0.035792      0.009656      0.446757
O	      6.36056      8.55247      8.45192         0.053546      0.038483     -0.015245
O	      6.46551      6.51868     10.34297        -0.304122      0.051480      0.061724
O	      8.57578      8.45639     10.35023         0.084121      0.236820      0.004472
