# total energy = -233.90105028 eV
 
CRYSTAL
PRIMVEC
0.044797 6.324941 6.286515 
6.490225 0.030731 6.300453 
4.320628 4.219277 0.027189 
PRIMCOORD
36 1
Li	      4.27161      2.17793      2.05541        -0.058871     -0.038108     -0.007341
Li	      6.59066      8.45600     10.48742         0.004306      0.020157      0.006982
Li	      4.40158      6.18698      2.16362        -0.042283      0.003004      0.006019
Li	      6.36405      6.35329      4.26081        -0.023121     -0.015532     -0.002522
Li	      4.22224      4.35716      4.19638         0.036275      0.003781      0.029138
Li	      6.48879      4.24609      6.33216        -0.021356      0.004495     -0.029779
Li	      4.41839      8.38162      4.30451         0.025109      0.014635     -0.018696
Li	      2.36043      6.17030      4.30757        -0.020033     -0.054640      0.000225
Li	      2.12416      4.28483      6.15681         0.017381     -0.027179      0.022003
Sc	      2.19036      4.06491      2.26655        -0.029436     -0.005083      0.051153
Sc	      4.45522      2.17620      6.24079         0.025526      0.025297     -0.040388
Mn	      6.37436      4.22223      2.11283         0.027796      0.009981      0.001494
Mn	      4.37779      6.44124      6.26683        -0.016105      0.002346     -0.017150
Mn	      4.44851      4.23114      8.42072         0.058927     -0.051161     -0.036425
V	      4.21377      0.08161      4.14502         0.116673      0.157978      0.017048
V	      6.55590      6.39588      8.44313         0.061681      0.000909      0.076774
Cu	      4.38457     10.47969      6.30567         0.013776     -0.016970     -0.037967
Ni	      8.64224      8.45265     12.55131        -0.029046      0.023283     -0.014287
O	      2.07861      2.00244      2.05860        -0.015005      0.010144      0.074234
O	      4.25526      4.17043      2.12505         0.009036     -0.022633     -0.002872
O	      4.32130      1.92829      4.20778        -0.041237     -0.109490      0.009807
O	      6.62079      4.22953      4.03593        -0.056433     -0.011837      0.014332
O	      6.48221      1.98330      6.26544        -0.054225      0.132970     -0.010218
O	      8.50299      4.23847      6.15740        -0.096567      0.047068      0.000926
O	      2.20547      4.18130      4.18544         0.013100      0.001687      0.005505
O	      4.35540      6.32543      4.43385        -0.044586      0.002748     -0.049990
O	      4.48065      4.22345      6.46070        -0.009167     -0.064635     -0.014958
O	      6.50210      6.41336      6.52857        -0.038119     -0.016107     -0.046212
O	      6.46181      4.38897      8.42710        -0.018804      0.004361     -0.013487
O	      8.53669      6.27034      8.39308         0.059195     -0.028273     -0.000646
O	      2.31519      6.35446      6.40459         0.075185     -0.064787      0.001801
O	      4.25214      8.51891      6.30075         0.089407     -0.062983      0.014661
O	      4.49679      6.45023      8.35758        -0.035177      0.020399      0.007121
O	      6.75789      8.47532      8.41364         0.018249      0.042831      0.018013
O	      6.36879      6.40318     10.29193        -0.015339      0.030136      0.036496
O	      8.70282      8.68006     10.40252         0.013288      0.031207     -0.050796
