# total energy = -233.71465054 eV
 
CRYSTAL
PRIMVEC
0.023863 6.346417 6.357551 
6.305066 -0.013504 6.396582 
4.182515 4.235399 0.011897 
PRIMCOORD
36 1
Li	      6.28205      0.06195      6.39260        -0.048682      0.021730      0.029476
Li	      8.29863      2.13246      6.44683        -0.019989      0.052949      0.021458
Li	      6.23095      2.15824      8.44480         0.029015     -0.032022      0.013659
Li	      6.35781      6.27105      4.44680         0.035557     -0.010572     -0.084087
Li	      4.21775      4.32627      4.32976         0.009590      0.073833     -0.052994
Li	      6.27587      4.36272      6.29772         0.044062     -0.075956     -0.032532
Li	      6.39247      8.26829      6.35594         0.005147      0.027933      0.023325
Li	      4.39673      6.27318      6.31896        -0.021271     -0.019524      0.039609
Li	      6.31579      6.29948      8.33283        -0.004359     -0.008181      0.053602
Sc	      2.05225      6.40179      8.33952        -0.036494      0.007931      0.001831
Sc	      6.23986      2.12125      4.39563        -0.056160     -0.008534     -0.116708
Mn	      4.24750      8.39824      8.39247        -0.037850      0.044725     -0.087324
Mn	      2.13656      6.31644      4.38148        -0.094249      0.112681     -0.052577
Mn	      4.27188      4.21813      8.39555        -0.013357     -0.038326      0.169131
V	      4.24576      8.42545      4.39498        -0.087267     -0.079070     -0.042694
V	      2.11822      4.21495      2.10121         0.099772     -0.005836     -0.051740
Cu	      4.18894     -0.00206      4.25004         0.040204      0.040778      0.039604
Cu	      8.34214      6.39703      6.41783         0.127377     -0.091479     -0.064423
O	      6.43120      6.32428      6.38032        -0.062985     -0.008678     -0.005916
O	      2.24788      2.19264      2.05174        -0.077808     -0.040175      0.012741
O	      4.11449      4.22068      2.17570         0.041738      0.041196     -0.007694
O	      4.21626      1.95332      4.03455        -0.052045      0.106886      0.008229
O	      6.32896      4.17834      4.15746        -0.153006      0.038067      0.005389
O	      6.19175      2.12882      6.36634        -0.011604      0.040760      0.092620
O	      8.34796      4.30476      6.71689        -0.021376      0.042411      0.142287
O	      2.02979      4.19440      4.13777        -0.026548      0.012944      0.043253
O	      4.08892      6.47332      4.34216         0.062362      0.163377      0.037423
O	      4.23710      4.13884      6.51784         0.005836      0.008617     -0.172037
O	      6.41908      4.20185      8.78381        -0.040160     -0.013895      0.075730
O	      8.41591      6.34258      8.80605         0.010308     -0.046830     -0.009407
O	      2.05018      6.41049      6.29187        -0.005494      0.004344      0.095639
O	      4.19390      8.49588      6.21804         0.032742     -0.010589     -0.004094
O	      4.16992      6.22326      8.32120         0.003382     -0.004711     -0.150079
O	      6.19060      8.49077      8.48550         0.047594      0.014771     -0.029702
O	      6.34702      6.27725     10.69831         0.172364     -0.127380      0.030715
O	      8.45878      8.56911     10.50451         0.103654     -0.234178      0.028287
