# total energy = -239.88307346 eV
 
CRYSTAL
PRIMVEC
0.075676 6.314588 6.334241 
6.379689 0.045219 6.367472 
4.290688 4.268938 -0.008230 
PRIMCOORD
36 1
Li	      4.30064      4.29144      0.09162        -0.036592      0.019019      0.023312
Li	      4.18136      2.30868      2.15154        -0.042619     -0.034444     -0.002199
Li	      6.47838      8.45867     10.57894        -0.005316     -0.028996      0.053103
Li	      4.38880      6.27777      2.16729         0.113070     -0.002508     -0.014079
Li	      2.35030      4.16037      2.19748         0.096688     -0.094366     -0.040736
Li	      2.09847      2.17768      4.07897        -0.002411     -0.026669     -0.030313
Li	      4.21981      4.25351      4.05645        -0.046729      0.014254      0.064579
Li	      8.55844      6.33691     10.54863        -0.050624     -0.010938      0.041029
Li	      6.47322      6.36638      8.53186        -0.038491      0.019844     -0.019491
Sc	      2.11433      4.25473      6.29960        -0.314206     -0.051092     -0.047676
Sc	      4.29518      6.39873      6.26706        -0.013521      0.204857      0.037721
Mn	      6.32068      4.31697      2.20760         0.030865      0.209345     -0.088864
Mn	      6.46143      4.24123      6.35788         0.172661     -0.061854     -0.132561
Mn	      6.46196      4.28314     10.48876         0.149420      0.061529      0.210024
V	      4.29147      0.14875      4.27122         0.026807      0.370947     -0.046004
V	      8.58227      8.37248      8.48382        -0.131329      0.138833      0.138401
Fe	      4.35534      2.07072      6.36038         0.067578     -0.013672     -0.068843
Co	      2.09884      2.10368      0.09487         0.159229     -0.053841     -0.165946
O	      2.14712      1.98734      2.09018        -0.094312      0.026391      0.145045
O	      4.43738      4.27164      2.17769        -0.180823      0.018606     -0.021448
O	      4.32085      1.94580      4.18904        -0.000332     -0.207672      0.035002
O	      6.59824      4.25768      4.39019        -0.052874     -0.021558      0.008388
O	      6.40327      2.25484      6.32144         0.215466      0.058790      0.117610
O	      8.61429      4.22644      6.24394         0.042642      0.052937      0.004049
O	      2.05171      4.24755      4.22039         0.074875      0.006962     -0.024233
O	      4.32808      6.55181      4.25926        -0.060001     -0.072228     -0.093696
O	      4.22486      4.27735      6.41689         0.034637      0.000725      0.094485
O	      6.46270      6.35465      6.38481        -0.058473      0.000589      0.041999
O	      6.24227      4.29313      8.32302        -0.100835     -0.020814      0.041093
O	      8.50923      6.59472      8.48710         0.070346      0.014644      0.156236
O	      2.22756      6.31390      6.28868        -0.112431     -0.061081     -0.043764
O	      4.34181      8.43191      6.41571        -0.115428     -0.013956      0.005951
O	      4.16379      6.21469      8.54347         0.065144     -0.170644     -0.047886
O	      6.57907      8.60664      8.45787         0.060957     -0.070828     -0.013715
O	      6.32771      6.23225     10.52922         0.172711     -0.077319     -0.049720
O	      8.74172      8.62436     10.47799        -0.095751     -0.123790     -0.266853
