# total energy = -238.60253251 eV
 
CRYSTAL
PRIMVEC
0.007135 6.253552 6.519483 
6.430010 0.003208 6.524327 
4.277786 4.162622 0.011305 
PRIMCOORD
36 1
Li	      4.35265      8.31304      8.66252         0.021149     -0.020471      0.004543
Li	      4.33287      6.22598     10.81824         0.008710     -0.013820     -0.049795
Li	      6.40805      2.12881      8.59510         0.018054      0.025761     -0.087136
Li	      4.31392      2.16544      6.53249        -0.017750      0.120956     -0.048616
Li	      6.40764      4.14828      6.68302        -0.000727     -0.015808      0.133029
Li	      2.17494      6.23172      4.37792         0.002121     -0.004570      0.006661
Li	      6.41959      8.29749      6.70463         0.048016     -0.029310      0.138718
Li	      4.27927      4.18254      8.62229        -0.039036      0.038383     -0.070512
Li	      6.38633      6.23726      8.58817        -0.027383     -0.018733     -0.038822
Sc	      6.38289      2.05174      4.35500        -0.038519      0.036901     -0.042625
Sc	      2.22035      2.07831      4.39568         0.043498      0.035485     -0.025831
Mn	      2.10210      2.07381      0.04969        -0.031174     -0.004310      0.076551
Mn	      6.44599     10.40008      8.71552         0.027299     -0.027151      0.032282
Mn	      6.35857      4.16562     10.78582         0.014290     -0.016288     -0.038366
V	      8.56237      4.41000      8.67551         0.011062      0.077674     -0.048439
V	      4.37167      6.16306      6.61243         0.054478     -0.054144      0.026226
Fe	     10.68999     10.39036     13.04982        -0.013414     -0.061522      0.018506
Cu	      4.26790      4.18183      4.36389         0.031761     -0.059124      0.074720
O	      2.12761      1.97473      2.10409        -0.028669     -0.018392      0.004279
O	      4.15964      4.12757      1.98980        -0.083310     -0.005651     -0.038335
O	      4.26836      2.13793      4.40472         0.020522     -0.112290     -0.004216
O	      6.41992      4.18412      4.24274         0.040672     -0.042061     -0.170133
O	      6.36702      1.99251      6.48096        -0.013596      0.056936     -0.018015
O	      8.62065      4.03379      6.68960        -0.078608     -0.052979     -0.013902
O	      2.19265      4.15426      4.09861        -0.092072      0.052249     -0.044771
O	      4.32542      6.20436      4.47978        -0.045560      0.184182     -0.017835
O	      4.24607      4.37061      6.59413        -0.005099      0.025711      0.025682
O	      6.30849      6.27238      6.47589         0.066286     -0.015802     -0.020349
O	      6.63712      4.14158      8.70355        -0.024787      0.006175      0.032248
O	      8.57256      6.15847      8.66771        -0.001008      0.035547     -0.032762
O	      2.16888      6.32946      6.61098        -0.049022     -0.016031      0.102809
O	      4.32707      8.25051      6.45229         0.021428     -0.007025      0.013762
O	      4.30494      6.28680      8.52620         0.123718     -0.007650      0.100967
O	      6.45174      8.49314      8.77691         0.012286      0.009088      0.039106
O	      6.40351      6.25632     11.01917         0.014700     -0.069654     -0.024955
O	      8.51052      8.34777     11.11405         0.009684     -0.032262      0.005326
