# total energy = -237.53520893 eV
 
CRYSTAL
PRIMVEC
0.012653 6.507721 6.269942 
6.352175 0.058411 6.224550 
4.253506 4.326985 0.019867 
PRIMCOORD
36 1
Li	      8.40810      4.42816      4.17624         0.010548     -0.000115     -0.016588
Li	      6.31293      2.25949      4.12355        -0.025018      0.035301      0.027595
Li	      2.13381      4.36740      2.14387        -0.059531     -0.008313     -0.017661
Li	      2.18656      2.18736      4.13452        -0.023005     -0.012450     -0.039417
Li	      4.16730      4.29896      4.20518        -0.020951      0.001652     -0.021820
Li	      6.35808      4.36469      6.16282         0.000704     -0.034260     -0.057668
Li	      2.10802      6.39071      4.18379         0.019518     -0.006590      0.040646
Li	      2.22257      4.38802      6.20453        -0.019879      0.023242     -0.002812
Li	      6.42526      6.60613      8.40112         0.007221      0.018874      0.082320
Sc	      4.15237      6.48146      2.20556         0.060062      0.037869      0.003299
Sc	      0.19884      4.40646      4.14413        -0.034232      0.019746     -0.027639
Mn	      6.39790      4.30045      2.18719        -0.014221      0.088358     -0.047219
Mn	      4.29705      2.17604      2.19760        -0.046493     -0.021741     -0.066324
Mn	      4.11578      2.25030      6.13292        -0.014414     -0.008097      0.058592
V	      8.47089      8.77531     12.41889        -0.058884      0.060525      0.083323
V	      4.41705      6.38801      6.25888        -0.138573      0.058980     -0.076894
Fe	      6.30818      0.11728      6.16385         0.091445     -0.016250      0.094235
Ni	      8.45485      8.67610      8.37685        -0.021436     -0.003832      0.087204
O	      2.15639      2.11855      1.93291         0.067449      0.021154      0.103740
O	      4.25887      4.36873      1.97030         0.010635      0.031998      0.044955
O	      4.23234      2.18582      4.10643         0.008684     -0.012307     -0.100474
O	      6.38240      4.37443      4.02102        -0.038147     -0.033855     -0.017629
O	      6.46251      2.15150      6.25103        -0.016228      0.031313      0.016491
O	      8.55525      4.26170      6.24256        -0.070361     -0.020742      0.003820
O	      2.11925      4.35564      4.18069         0.114250     -0.049601      0.014059
O	      4.21563      6.55986      4.27753         0.025014     -0.034751     -0.016576
O	      4.21731      4.48792      6.27893         0.048857      0.013443     -0.069901
O	      6.19189      6.52623      6.24146         0.102952     -0.010389      0.025987
O	      6.29579      4.27832      8.36460         0.109982      0.005210      0.010888
O	      8.48649      6.61659      8.24878        -0.036575     -0.120976      0.048981
O	      2.21831      6.64833      6.38344        -0.009478     -0.060164      0.097473
O	      4.16953      8.62875      6.37481         0.084468     -0.000118      0.011816
O	      4.25653      6.44069      8.23412         0.017980      0.058473      0.048145
O	      6.31578      8.75865      8.36920        -0.073672     -0.056618     -0.008668
O	      6.42519      6.50743     10.55561        -0.033595      0.003179     -0.188284
O	      8.53081      8.70730     10.62922        -0.025076      0.001856     -0.127995
