# total energy = -242.27145860 eV
 
CRYSTAL
PRIMVEC
-0.001684 6.308747 6.238557 
6.573853 0.010774 6.225151 
4.385221 4.199201 0.004611 
PRIMCOORD
36 1
Li	     10.90577     10.47693     12.44382         0.038385     -0.067714     -0.009940
Li	      2.26355      8.40514      6.24338         0.032814     -0.001955     -0.007187
Li	      4.46254      8.39576      8.31492        -0.015995      0.023393      0.010936
Li	      6.52489      8.37709     10.37090         0.013633     -0.024470      0.015591
Li	      2.22713      2.08679      4.15346         0.058226      0.016858     -0.016968
Li	      4.26242      4.23658      4.14832        -0.056056     -0.036090     -0.023890
Li	      6.56589      4.25690     10.38458        -0.051267      0.043007     -0.004362
Li	      4.31970      4.28664      8.28250        -0.051484     -0.082628      0.063241
Li	      6.45891      6.35859      8.36241        -0.039804     -0.041813      0.012989
Sc	      6.53770      4.18137      2.18959         0.022075     -0.094280     -0.140616
Sc	      6.52222      8.34071      6.22089        -0.086202      0.087157      0.049225
Mn	      4.45488      2.09037      6.19815         0.017257      0.011907      0.118042
Mn	      6.56751      4.19849      6.21232         0.110500      0.009908     -0.012128
Mn	      8.60646      6.45416     10.34280        -0.049566      0.041888     -0.020413
V	      4.52040      6.24204     10.35344         0.118289     -0.208673     -0.022747
V	      2.24696      4.13464      2.12656         0.145660      0.130876     -0.023020
Fe	      0.04553      2.12493      2.12687        -0.026009     -0.019389      0.125081
Fe	      4.35090      6.35791      6.13892        -0.057314     -0.071621      0.074678
O	      2.10782      2.14923      2.09801        -0.037931     -0.125700      0.021436
O	      4.40940      4.27851      2.11440        -0.035686     -0.021224      0.005759
O	      4.38198      1.91058      4.28784         0.016436      0.012484     -0.031585
O	      6.75180      4.20065      4.24251        -0.055954     -0.022451      0.173944
O	      6.60166      2.25382      6.30059         0.035049      0.086326     -0.034512
O	      8.88159      4.29079      6.24626        -0.089627      0.087110      0.002623
O	      2.17491      4.23474      4.09074         0.057387     -0.113597     -0.096145
O	      4.27533      6.33875      4.15170         0.093145     -0.066361     -0.086190
O	      4.30830      4.12204      6.19106         0.057887      0.039083     -0.012637
O	      6.41142      6.19972      6.23563         0.058975     -0.098732     -0.042201
O	      6.71569      4.16251      8.18021        -0.114266      0.031500     -0.085335
O	      8.88543      6.24088      8.19353         0.007031      0.034597     -0.093274
O	      2.31926      6.26606      6.27466        -0.059584     -0.005908      0.085449
O	      4.45613      8.27517      6.24698         0.048212      0.155039      0.004853
O	      4.32082      6.32344      8.37562        -0.032371     -0.011018      0.002652
O	      6.56604      8.45897      8.26846         0.001487      0.110484      0.017590
O	      6.45626      6.33393     10.37320        -0.048597      0.027041     -0.001115
O	      8.78458      8.61085     10.41469        -0.024734      0.164966     -0.019822
