# total energy = -233.14893585 eV
 
CRYSTAL
PRIMVEC
-0.059646 6.335460 6.085100 
6.566454 -0.067870 6.092847 
4.335608 4.188447 -0.004196 
PRIMCOORD
36 1
Li	      6.59565      0.13174      6.03469         0.034641     -0.098802     -0.023613
Li	      8.49047      1.95519      6.06647         0.030911     -0.032174     -0.040609
Li	      2.01550      0.20736      2.05362        -0.088808      0.023455     -0.020932
Li	      4.15568      2.09725      2.07793        -0.033467     -0.007483     -0.052143
Li	      6.57789      2.11842      4.18526         0.057638      0.071149     -0.091261
Li	      0.16067      1.98903      1.85728         0.018268      0.010305      0.045411
Li	      4.67672      1.96773      5.99466        -0.029091      0.006750     -0.068457
Li	      6.65858      3.89961      5.97781         0.011616      0.086155     -0.027826
Li	      4.19812      6.41693      6.09281        -0.056953     -0.002893      0.008868
Sc	      2.28023      4.12935      1.86806         0.085819      0.013524      0.122728
Sc	      2.04161      4.34387      6.11779         0.111813      0.120154     -0.002525
Ti	      6.44700      6.25069      8.02333        -0.072432     -0.036251     -0.163364
Mn	      4.26398      8.34249      4.10183         0.000074     -0.230748     -0.040336
V	      8.67410      8.32421      8.07950         0.065873     -0.081077     -0.032759
Cr	      4.40612      4.17442      4.07129        -0.210553      0.075161      0.135915
Co	      6.49983      6.26102      4.09166        -0.051322     -0.084382      0.022031
Cu	      8.67418      4.23718      4.12251         0.096186     -0.038025     -0.057180
Cu	      8.64205      6.30760     10.20178         0.134166      0.104593     -0.050542
O	      6.56463      2.02770      6.04639        -0.084980      0.019164      0.029313
O	      2.16598      2.13883      2.18222        -0.064160     -0.034414     -0.131173
O	      4.29501      4.16446      2.12529        -0.060131      0.006479     -0.136371
O	      4.11330      2.12752      4.08583         0.112258     -0.067815      0.093914
O	      6.35366      4.34138      4.05560         0.124930     -0.049916      0.064643
O	      8.70118      4.13144      6.01958         0.029408      0.018572      0.023178
O	      2.29753      4.05543      4.07753        -0.001563     -0.142760     -0.124205
O	      4.44786      6.30988      4.05103         0.148074      0.103844      0.115881
O	      4.28526      4.20392      6.24464         0.024919     -0.003667     -0.021818
O	      6.45797      6.30497      6.16429        -0.001901     -0.034043      0.206834
O	      6.46368      4.22484      8.19425        -0.004025     -0.009924     -0.123971
O	      8.53700      6.29768      8.20451        -0.000438     -0.029635     -0.091475
O	      2.16848      6.32564      6.02645         0.071103      0.121749      0.186216
O	      4.38312      8.38650      5.98108        -0.150607     -0.012416      0.074773
O	      4.50952      6.20118      8.22028         0.039466      0.084018     -0.060054
O	      6.64754      8.22043      8.16141         0.039133     -0.091569      0.077171
O	      6.62516      6.04551     10.05884        -0.254968      0.177239      0.078707
O	      8.69939      8.44666      9.95686        -0.070894      0.045680      0.075032
