# total energy = -234.88752713 eV
 
CRYSTAL
PRIMVEC
-0.046569 6.416522 6.503739 
6.259857 0.038558 6.417880 
4.187084 4.234906 0.012295 
PRIMCOORD
36 1
Li	      4.21548     10.36933      6.60090         0.010614      0.003751      0.007508
Li	      2.22012      8.47077      6.51462        -0.017609      0.005481     -0.019524
Li	      2.02625      6.42755      8.39750         0.004464     -0.011616      0.027239
Li	      4.15041      8.47665      8.45290        -0.022064      0.004545      0.018377
Li	      4.22346      6.29152     10.69533        -0.004256     -0.016117     -0.017387
Li	      8.29230      6.42205      6.49277         0.023763     -0.000369     -0.008509
Li	      4.01368      8.63502      4.66285        -0.004495      0.022672     -0.009664
Li	      6.04376      8.63374      6.70315        -0.022053      0.030789      0.031278
Li	      4.08930      4.41692      8.65269        -0.013719     -0.001490      0.007476
Sc	      6.21269      8.52280     10.71054         0.006411     -0.027959     -0.004717
Sc	      2.09528      6.41552      4.50198        -0.118060      0.022039      0.033344
Ti	      2.18250      2.23566      4.27610         0.135931      0.087588     -0.070706
Mn	      6.19179      6.45210      8.60980         0.141101      0.034428      0.071756
V	      6.24160      4.22937      6.42621         0.036034     -0.286757      0.048582
Cr	      8.34566      4.28284      8.54076         0.016283     -0.044625     -0.048507
Co	     10.39694      6.37155      8.58767         0.029636      0.113814     -0.302948
Ni	      4.19913      4.28760      4.25474         0.022389      0.003402     -0.059372
Ni	      4.13526      6.50767      6.56963         0.009882     -0.097005     -0.143210
O	      2.04321      2.19684      2.32267        -0.115997      0.036428      0.122690
O	      4.06958      4.32118      2.17168        -0.001507      0.029522      0.056680
O	      4.08239      2.21960      4.31630        -0.236726     -0.088414      0.047144
O	      6.29962      4.32873      4.43984         0.086584      0.070249      0.051215
O	      6.18742      2.41393      6.43068        -0.024242      0.057887     -0.085914
O	      8.12688      4.31904      6.54455        -0.054958      0.006448      0.012404
O	      2.09919      4.18398      4.19790        -0.073693     -0.158839     -0.017858
O	      4.24610      6.35058      4.26709         0.081163      0.056569      0.142181
O	      4.40469      4.38773      6.38046         0.055326     -0.083111      0.073173
O	      6.25935      6.29377      6.27028         0.044284      0.015573     -0.046445
O	      6.27946      4.36232      8.37308         0.026367      0.081041      0.027824
O	      8.21427      6.29817      8.63327         0.153496      0.043415     -0.024105
O	      2.09862      6.35605      6.48320        -0.085956     -0.009751     -0.047517
O	      4.13762      8.47297      6.52774         0.009551      0.212394     -0.011143
O	      4.32012      6.39871      8.60183        -0.107131     -0.049627      0.195480
O	      6.25218      8.43026      8.68161        -0.015623     -0.039455     -0.004042
O	      6.25448      6.48061     10.82925         0.009326      0.001872     -0.040730
O	      8.24988      8.48506     10.78832         0.015483     -0.024773     -0.012054
