# total energy = -236.50977487 eV
 
CRYSTAL
PRIMVEC
0.092262 6.344274 6.238633 
6.334960 0.033147 6.297559 
4.251159 4.295514 -0.005437 
PRIMCOORD
36 1
Li	      4.33101     10.47826      6.14943        -0.030690     -0.021417     -0.024643
Li	      2.38319      8.49131      6.14626         0.002094      0.043758     -0.004797
Li	      2.18555      6.38672      8.28667        -0.013250      0.011202      0.000768
Li	      8.42963      4.28900      4.32657        -0.060985     -0.053832     -0.011069
Li	      6.34458      6.39832      4.28459        -0.040344     -0.034229      0.009368
Li	      6.44179      4.30785      6.13912        -0.006036      0.023743     -0.012620
Li	      4.32759      8.49254      4.39781         0.029626     -0.016311     -0.122799
Li	      6.24722      8.51369      6.17232         0.058613     -0.029704      0.007855
Li	      4.32199      6.59775      6.18228         0.037915     -0.027930     -0.001642
Sc	      0.11768      2.04481      1.96830         0.161198      0.032368     -0.008280
Sc	      2.17358      4.19921      2.02283        -0.017790     -0.157997     -0.022131
Ti	      4.23345      4.41302      8.33423        -0.018611      0.161655     -0.172139
Mn	      4.31646      4.28633      4.22741         0.032725      0.046983      0.019014
V	      6.38931      6.39081      8.34273        -0.157419      0.313746      0.222908
Cr	      8.48544      6.39252      6.21451        -0.005660      0.093791     -0.034823
Co	      6.34695      2.18458      4.21503         0.121628     -0.004759     -0.072069
Co	      2.19939      6.37941      4.45714         0.020702     -0.011669      0.374345
Ni	      4.30824      8.51241      8.22684         0.025829     -0.026762      0.076347
O	      2.12600      2.16762      2.09524        -0.153003      0.042480     -0.020652
O	      4.23782      4.28633      2.02220        -0.052964      0.145455      0.023290
O	      4.36145      2.25203      4.19677         0.038042      0.006692      0.110537
O	      6.23514      4.15757      4.19266        -0.042349     -0.070124     -0.042916
O	      6.26854      2.16693      6.18923        -0.074869      0.005582     -0.039139
O	      8.45847      4.41080      6.28453        -0.012491      0.056311      0.048808
O	      2.32275      4.33867      4.13871         0.015171      0.085685      0.005950
O	      4.26084      6.27892      4.10663        -0.088198     -0.018381      0.005411
O	      4.24055      4.13902      6.46001         0.027538      0.030691      0.291283
O	      6.49417      6.42305      6.37306        -0.067967     -0.224973     -0.146930
O	      6.28893      4.28302      8.45098        -0.055582     -0.350527     -0.021621
O	      8.50181      6.44699      8.28250        -0.119861      0.036165      0.006232
O	      2.20669      6.38546      6.21152         0.044756     -0.007597     -0.381394
O	      4.32310      8.50565      6.27204         0.021052      0.011570     -0.137401
O	      4.34909      6.29930      8.37520         0.212717     -0.217905      0.031928
O	      6.48733      8.48453      8.48387         0.254354      0.192103      0.123134
O	      6.52547      6.55685     10.33890        -0.026776     -0.029802      0.000828
O	      8.40377      8.45965     10.32324        -0.059116     -0.036060     -0.080938
