# total energy = -240.96032230 eV
 
CRYSTAL
PRIMVEC
0.020317 6.309480 6.468930 
6.260791 0.026401 6.461995 
4.196105 4.224827 -0.005114 
PRIMCOORD
36 1
Li	      0.03339      0.04714      0.01880         0.011231     -0.004628     -0.020384
Li	      2.09524      0.03437      2.13881         0.014503      0.010048     -0.042739
Li	      6.19331      2.24978      4.32763        -0.034533     -0.007903     -0.004930
Li	      6.25883      2.09949      8.57505        -0.031044     -0.033001     -0.005572
Li	      8.38801      4.24072      8.56673         0.035583      0.022787      0.009624
Li	      6.24003      6.28530      4.29329        -0.000838      0.008088     -0.013660
Li	      4.33297      4.21347      4.35066        -0.014205     -0.001095      0.036333
Li	      6.31962      8.42239      6.48438         0.005065     -0.033637      0.012101
Li	      4.17012      4.20195      8.49692        -0.028771     -0.019221     -0.067503
Sc	      8.23527      4.23980      4.23646         0.142746     -0.038943     -0.028432
Sc	      2.11055      6.29435      4.30439        -0.000608      0.063132      0.015264
Ti	      0.11820      4.14353      4.14505         0.146602     -0.080498     -0.020383
Mn	      8.39070      6.38135      6.55136         0.107267      0.093894      0.048526
V	      4.21809      2.33000      2.19564         0.125873      0.030184     -0.245898
Cr	      2.08684      2.11818      0.06947         0.111397     -0.135783     -0.084047
Co	      6.30534      6.32781      8.61877        -0.019482      0.073928     -0.085986
Co	      6.26683      4.22717      6.44145        -0.318286      0.036038     -0.295118
Co	      4.22662      6.26166      6.51086        -0.134660      0.052920      0.193774
O	      2.28902      2.12990      2.03438        -0.003723      0.023569      0.011343
O	      4.19804      4.07321      2.14655        -0.000349      0.026473     -0.010098
O	      4.16019      2.11568      4.05285        -0.028253     -0.006806     -0.037905
O	      6.28549      4.21799      4.25461         0.025146      0.010663      0.180568
O	      6.24333      2.19979      6.48973         0.003803     -0.564258      0.075745
O	      8.33289      4.30474      6.42818         0.477477      0.037535     -0.116339
O	      1.97603      4.23266      4.36105        -0.347244     -0.012530     -0.030632
O	      4.20255      6.43530      4.34461         0.015037      0.158994      0.091726
O	      4.22143      4.13476      6.47356        -0.449112     -0.130713      0.018923
O	      6.38427      6.24804      6.46456         0.190612      0.558477      0.179746
O	      6.27043      4.21300      8.77975         0.023706     -0.048609      0.257480
O	      8.34628      6.36788      8.69074        -0.009195     -0.031961      0.093548
O	      2.13483      6.43754      6.43476         0.042652      0.065377     -0.067025
O	      4.12146      8.39938      6.59873        -0.044326      0.040796      0.046787
O	      4.23166      6.37199      8.62458        -0.002586     -0.063561     -0.057664
O	      6.05109      8.39936      8.55152        -0.151806      0.030636      0.002205
O	      6.26642      6.17962     10.83458         0.044380     -0.159174     -0.120129
O	      8.46467      8.44614     10.90789         0.095941      0.028781      0.080749
