# total energy = -230.84089222 eV
 
CRYSTAL
PRIMVEC
-0.050418 6.417265 6.464944 
6.256014 -0.011372 6.424211 
4.142937 4.224117 0.020280 
PRIMCOORD
36 1
Li	      6.23343     10.53086      8.66432         0.007828     -0.126744      0.005728
Li	      4.22759      8.41580      8.62668         0.083401     -0.086382      0.028607
Li	      4.15069      6.33290     10.54937         0.019330     -0.087077     -0.141797
Li	      6.20948      8.53760     10.60103         0.061591     -0.012405     -0.097198
Li	      4.09890      2.24044      6.48312        -0.078134      0.065363      0.013106
Li	     10.31821      8.54074     10.76456         0.010305      0.038352      0.056700
Li	      6.28388      8.42938      6.66336         0.097144     -0.037674      0.166819
Li	      4.08702      4.34185      8.53058        -0.047182     -0.023210     -0.023411
Li	      6.10523      6.49876      8.59335         0.018333      0.101891      0.010204
Sc	      8.26846      4.26090      8.60341        -0.038473      0.030022      0.050353
Sc	      8.33729      6.45192     10.72159        -0.096832      0.048414      0.075380
Ti	      4.10394     10.57021      6.43835         0.108241     -0.169230     -0.321921
Mn	      8.26725      8.51274     12.87726         0.061601      0.007463     -0.058271
V	      2.15170      2.09596      4.32898         0.287089      0.019632      0.047787
Cr	      6.19609      4.23196      6.41554         0.012203      0.048622     -0.110190
Cu	      6.20139      2.14528      8.55665        -0.042837      0.041542      0.021470
Ni	      4.15955      4.25306      4.32283         0.008847     -0.083427     -0.023361
Ni	      4.14579      6.31596      6.58329        -0.058356      0.071612      0.083266
O	      6.18571      8.47534      8.64332         0.048891      0.028569     -0.012886
O	      1.96670      2.14902      2.18500        -0.019627      0.014677     -0.006821
O	      4.11968      4.35250      2.04625        -0.054218     -0.024842     -0.047332
O	      3.93424      2.20050      4.25324        -0.173048     -0.038874     -0.069008
O	      6.20050      4.36956      4.39337         0.095145      0.033391      0.034507
O	      6.37515      2.12679      6.32079         0.012746     -0.034323      0.085069
O	      8.36957      4.27877      6.48199         0.028061     -0.032670      0.073502
O	      2.06401      4.21078      4.27028        -0.113249      0.052659     -0.059591
O	      4.22934      6.36839      4.47184        -0.033989      0.076269     -0.150978
O	      4.23011      4.25718      6.37336         0.045437     -0.121970      0.039763
O	      6.20404      6.24732      6.32522         0.087098     -0.011259     -0.072581
O	      6.21565      4.14791      8.43113        -0.005447      0.066349     -0.035240
O	      8.33730      6.32651      8.68222        -0.042157      0.020569     -0.060238
O	      1.91634      6.35025      6.45581        -0.255093      0.061365     -0.035943
O	      3.94978      8.64640      6.54123        -0.071250      0.190888      0.026392
O	      4.13127      6.40437      8.53649        -0.038957     -0.071298      0.127614
O	      6.24844      6.37892     10.94919         0.062613     -0.035416      0.339224
O	      8.33918      8.46036     10.91789         0.012944     -0.020850      0.041279
