# total energy = -233.10229934 eV
 
CRYSTAL
PRIMVEC
-0.021158 6.233784 6.504049 
6.177148 -0.013618 6.495697 
4.119989 4.152641 -0.010013 
PRIMCOORD
36 1
Li	      6.12956      6.23043     12.89777        -0.022662      0.019639      0.020422
Li	      4.15026      8.26214      8.64436        -0.040914      0.016837     -0.140015
Li	      4.21675      6.25089     10.73331        -0.075580      0.012516     -0.005238
Li	      6.15815      6.16757      4.33768        -0.012128     -0.013211      0.081488
Li	      6.09535      4.19215      6.58024        -0.017875      0.034622      0.129340
Li	      6.10836      4.22478     10.74219         0.006958     -0.048395      0.024360
Li	      4.12867      6.19773      6.58054         0.084868     -0.054897      0.041965
Li	      4.17698      4.19915      8.70991        -0.024500     -0.028805     -0.074836
Li	      6.01110      6.21983      8.81820         0.035760      0.042708     -0.116693
Sc	      8.26777      8.33390     12.85115        -0.131137      0.138403      0.190802
Sc	      1.97560      4.18428      6.40441         0.258492     -0.289987     -0.001706
Ti	      6.27179     10.30298      8.72574         0.196154     -0.209196      0.024179
Mn	      4.10431      6.22850      2.20761        -0.128764      0.112579     -0.205462
V	      8.20828      6.22673      6.48708        -0.134448      0.073317      0.116124
Cr	      2.06351      4.12431      2.20110         0.033806      0.047449     -0.073389
Cu	      6.16940      8.24837     10.77407        -0.048509      0.093066      0.028604
Cu	      4.14790      4.13807      4.35865        -0.056969      0.013316      0.116357
Ni	      8.18372      6.24396     10.78544         0.128504     -0.084044     -0.020893
O	      6.19347      6.31711     10.79543        -0.099373     -0.126528      0.056104
O	      1.94716      2.06663      2.12499         0.106200     -0.076152      0.022797
O	      4.11033      4.28644      2.05672         0.069638     -0.083199     -0.191085
O	      4.20660      2.11997      4.58983         0.060680     -0.109308     -0.339552
O	      6.13669      4.09908      4.13172         0.085872      0.003348     -0.004217
O	      6.05300      2.10176      6.74938         0.294511     -0.039360      0.067851
O	      8.21155      4.20125      6.65898         0.030143     -0.244925     -0.027891
O	      2.12473      4.14995      4.25094        -0.100807     -0.042023      0.001962
O	      4.07748      6.11802      4.11377         0.087440      0.201794      0.046997
O	      4.08756      4.02054      6.60567         0.013109      0.148100      0.169791
O	      6.35918      6.22120      6.52833        -0.277016     -0.021511      0.008703
O	      6.25607      3.97536      8.73877        -0.037337      0.074611      0.077621
O	      8.33938      6.12539      8.62134         0.005585      0.005112      0.169486
O	      2.05622      6.25423      6.56762        -0.029097      0.079881     -0.005264
O	      4.08368      8.26669      6.42558        -0.112242      0.055256     -0.038650
O	      3.97505      6.27285      8.68108        -0.242158      0.006670      0.032205
O	      6.08996      8.46013      8.49770        -0.004448      0.152106      0.024641
O	      8.14574      8.28952     10.85073         0.098247      0.140211     -0.206905
