# total energy = -231.66335483 eV
 
CRYSTAL
PRIMVEC
0.065923 6.403446 6.269394 
6.302072 0.015608 6.319262 
4.218471 4.317375 -0.005993 
PRIMCOORD
36 1
Li	      8.47223      8.51550     12.50591        -0.029770     -0.057529     -0.041186
Li	      6.23047      4.37902      2.12196        -0.015591      0.012326      0.022528
Li	      8.46176     10.63193     10.48439        -0.019419     -0.104319     -0.064382
Li	      4.27000      6.39338      2.24714         0.038906     -0.065091      0.072620
Li	      6.23345      6.47090      4.18111        -0.011782      0.042689      0.033685
Li	      4.24845      4.38801      4.14991         0.065248      0.009785      0.009365
Li	      4.26188      8.54140      4.21823        -0.040083      0.008338      0.008354
Li	      2.16998      6.42402      4.22240        -0.016320      0.015267      0.003437
Li	      2.09079      4.34393      6.09617        -0.035285      0.021208     -0.075482
Sc	      2.15188      4.30770      2.27402        -0.039023     -0.013702      0.073432
Sc	      4.12761      6.40422      6.13067         0.044185     -0.098740      0.083036
Ti	      4.19873      2.14648      6.16680        -0.299598      0.211318     -0.035266
Mn	      6.34494      6.47226      8.41416        -0.056611      0.037895     -0.281939
V	      4.14025      2.18568      2.07114         0.032057     -0.093097     -0.092758
Cr	      6.42817      8.58238     10.49347         0.341560      0.022503     -0.021594
Cu	      0.16104      6.37528      6.22325        -0.095486      0.015704     -0.067600
Cu	      6.37153      4.29407      6.24217         0.119668      0.034330      0.061871
Cu	      8.50537      8.56345      8.45091        -0.015232     -0.008437      0.132395
O	      8.40081      8.60132     10.36819        -0.210357     -0.063323      0.077276
O	      2.32142      2.15328      2.15925        -0.046084      0.054792     -0.003193
O	      4.23233      4.11362      2.16254         0.014041      0.040191     -0.006239
O	      4.26107      2.17352      4.27161         0.098544     -0.063751      0.170080
O	      6.34218      4.17112      4.32579         0.020754     -0.086740     -0.055470
O	      6.22445      2.04395      6.27531        -0.076989      0.005851     -0.122420
O	      8.52185      4.49234      6.30697         0.004398     -0.103935     -0.079428
O	      2.10644      4.29717      4.17311        -0.037971      0.046175     -0.048741
O	      4.26286      6.44167      4.19268        -0.022416     -0.007813      0.029805
O	      4.27694      4.19589      6.43859         0.027594     -0.072335     -0.095131
O	      6.44609      6.52886      6.38618         0.247961      0.124645     -0.266981
O	      6.35563      4.50554      8.27553         0.069796     -0.010924     -0.095985
O	      8.31314      6.43055      8.27616         0.034207     -0.052113     -0.051940
O	      2.13370      6.42809      6.30925         0.103602     -0.025628      0.007766
O	      4.26599      8.57428      6.41579        -0.058132      0.054611      0.116445
O	      4.41382      6.55598      8.32791         0.062172      0.079282      0.045761
O	      6.23153      8.44082      8.47491        -0.190987      0.113757      0.049914
O	      6.36707      6.53644     10.27622        -0.007557     -0.023187      0.507971
