# total energy = -239.02302734 eV
 
CRYSTAL
PRIMVEC
-0.020425 6.388461 6.318584 
6.196679 -0.022287 6.320752 
4.125781 4.255052 -0.009600 
PRIMCOORD
36 1
Li	      2.10310      2.12192      0.06531         0.024209     -0.057272      0.035611
Li	      4.09409      8.44491      8.30067         0.004047     -0.001290     -0.035697
Li	      4.13017      6.30763     10.48142         0.000675     -0.073541     -0.012484
Li	      6.16979      2.09286      8.35290         0.015610     -0.034725      0.024151
Li	      8.22618      4.29941      8.38001         0.051787      0.035192      0.022111
Li	      8.22533      6.41816     10.46247        -0.017402      0.002373     -0.009741
Li	      6.12785      8.52010      6.41094         0.019633      0.043982     -0.024159
Li	      4.10786      6.41360      6.38111        -0.043615      0.067229     -0.022743
Li	      4.10209      4.22367      8.38697         0.002162      0.031281     -0.049136
Sc	      6.24643      8.47183     10.53622        -0.053418     -0.065399      0.047207
Sc	     10.22109      8.45649     10.48470         0.031545      0.011486      0.084898
Ti	      4.02344      4.36672      4.32350        -0.136513      0.098250      0.313646
Mn	      2.13634      6.37367      8.35522        -0.004588     -0.075319     -0.059948
V	      4.10343      4.16723      0.07289         0.030825      0.061195     -0.101052
Cr	      6.16854      6.39215      8.34767        -0.252656      0.051886      0.109981
Fe	      2.13244      2.09338      4.17335        -0.065194      0.009303      0.147835
Co	      6.26435      4.20234      6.40840         0.004402     -0.055879      0.036593
Cu	      8.24286      6.39844      6.41448         0.000165      0.032020     -0.048774
O	      2.11048      1.96976      2.26603         0.007088     -0.002742     -0.282816
O	      4.28096      4.22624      2.09414         0.036734     -0.001671      0.108206
O	      4.10571      2.28912      4.33828         0.117141     -0.003453     -0.086748
O	      6.13181      4.25683      4.26282        -0.006050     -0.020849      0.086990
O	      6.13225      2.04678      6.33700         0.152848      0.075619      0.039245
O	      8.44558      4.13607      6.35899        -0.153044     -0.124873      0.010888
O	      2.13946      4.15403      4.15210         0.080304      0.096372      0.008234
O	      4.16716      6.32039      4.17748        -0.002158      0.016670     -0.022798
O	      4.12149      4.42065      6.13939        -0.010326      0.046960     -0.308855
O	      6.23803      6.33757      6.31290        -0.069017      0.084107      0.054229
O	      6.17964      4.36955      8.42965         0.060740     -0.038610     -0.156715
O	      8.12944      6.39451      8.35667         0.102658     -0.017803      0.181436
O	      1.81630      6.40787      6.29059         0.058130      0.035549     -0.022235
O	      4.13403      8.62551      6.23746        -0.012194     -0.256728      0.040741
O	      4.05401      6.38324      8.38431        -0.008817     -0.015329      0.053619
O	      6.15340      8.48191      8.46161         0.038939      0.025112     -0.045163
O	      6.14757      6.35881     10.50508         0.019257      0.023766     -0.103315
O	      8.23729      8.47736     10.53664        -0.023909     -0.002868     -0.013241
