# total energy = -236.71369814 eV
 
CRYSTAL
PRIMVEC
-0.066083 6.402324 6.348120 
6.456203 -0.031766 6.314804 
4.282701 4.224538 0.000018 
PRIMCOORD
36 1
Li	      6.42084      2.04024      4.24972         0.024318      0.016030      0.040290
Li	     10.44845      6.53746      8.48132        -0.022215     -0.036367      0.021924
Li	      8.30616      4.50003      8.36865        -0.024911     -0.010718     -0.011998
Li	      8.57415      6.41358      6.59370         0.020408      0.039381     -0.055131
Li	      6.38785      4.19140      6.55881        -0.034222     -0.029396     -0.069004
Li	      6.35993      4.32075     10.27648        -0.024636      0.084471      0.019586
Li	      8.53955      6.34755     10.30198        -0.001587     -0.003812      0.013713
Li	      8.77725      8.22267      8.46933         0.008216      0.027411      0.014958
Li	      6.68212      6.13526      8.49976         0.005130      0.041141      0.015806
Sc	      2.13253      2.14580      4.12063        -0.049949      0.039637      0.071659
Sc	      4.25533      6.33839      6.32792         0.094028     -0.080751     -0.055090
Ti	      8.43700      2.13841      6.24748        -0.498387      0.167699     -0.309842
Mn	      6.42205      4.16702      2.16509        -0.033704     -0.051057      0.040013
V	      2.15056      4.21376      6.30702         0.113160     -0.085635     -0.164365
Cr	      4.22327     10.60219      6.33445        -0.054401      0.134235     -0.014513
Fe	      4.31094      6.39455     10.52090        -0.090168     -0.038983      0.137037
Co	      4.31932      4.21472      4.21569        -0.033144     -0.083627      0.029915
Ni	      4.25158      8.49308      8.46040         0.046501      0.030504     -0.010867
O	      8.55957      6.34085      8.44649        -0.011774      0.007555      0.019943
O	      2.23263      1.96293      2.00565        -0.027587      0.012219     -0.004493
O	      4.48919      4.13236      2.07510         0.107277      0.080161     -0.032143
O	      4.27486      2.12884      4.16797        -0.093025      0.062358      0.080435
O	      6.54424      4.27935      4.28916         0.190533      0.076188     -0.022705
O	      6.59356      1.96188      6.33400         0.499905      0.026778      0.010841
O	      8.72029      4.04504      6.31361         0.036411     -0.169638      0.042338
O	      2.10351      4.24521      4.44473        -0.111624     -0.053163      0.047948
O	      4.34802      6.21947      4.28367         0.114794     -0.041119      0.043697
O	      4.11432      4.28813      6.30048        -0.125939      0.001282     -0.018823
O	      6.33379      6.51691      6.29429        -0.120633      0.050512     -0.074140
O	      6.41593      4.23748      8.41240         0.003474     -0.010915      0.042706
O	      2.04840      6.43013      6.25172         0.048836     -0.008788      0.022859
O	      4.25550      8.53203      6.35807         0.004824     -0.090964     -0.078463
O	      4.06508      6.41130      8.49541        -0.083250     -0.058342     -0.097019
O	      6.32519      8.62200      8.19237         0.042440     -0.010014      0.033494
O	      6.23302      6.40670     10.67265         0.080513      0.037737     -0.012495
O	      8.50854      8.58298     10.72547         0.000386     -0.072010      0.281931
