# total energy = -234.83236748 eV
 
CRYSTAL
PRIMVEC
0.018827 6.304274 6.224934 
6.485859 0.000282 6.244129 
4.320880 4.212945 0.002616 
PRIMCOORD
36 1
Li	      4.36419      6.34074     10.35243         0.021144      0.129968      0.080841
Li	      6.42313      2.08394      4.13152        -0.215520     -0.061436      0.039813
Li	      4.28640      6.33922      2.17988         0.020648     -0.137237      0.209646
Li	      2.22204      4.19373      2.17216         0.261845     -0.133843      0.149325
Li	      6.45700      6.32714      4.20369        -0.208499      0.016088      0.019892
Li	      4.32271      4.27083      4.11684        -0.021363      0.232123     -0.072391
Li	      2.19159      6.25861      4.11193         0.223964     -0.111058     -0.008910
Li	      4.37310      6.28905      6.16846         0.029700      0.078053     -0.339769
Li	      6.47821      6.31211      8.38066        -0.002546      0.070733      0.081493
Sc	      6.46615      6.30420     12.39013        -0.012896     -0.044925      0.276091
Sc	      6.45554      4.21933      2.27907        -0.470211      0.376182     -0.164763
Ti	      8.57400      2.09941      6.25258         0.130166     -0.093031      0.538348
Mn	      4.29464      2.10865      6.16665         0.186131     -0.475452     -0.192243
V	      4.39593      4.20979      8.34211         0.409298     -0.181605      0.688492
Cr	      0.04437      4.13136      4.09716         0.119296      0.183682      0.269497
Fe	      6.54344      8.28553      6.16452        -0.371073      0.281071     -0.276411
Cu	      4.32928      2.11562      2.29235        -0.098031     -0.263171      0.258020
Ni	      6.47940      4.26947      6.17487         0.130264      0.055743     -0.139424
O	      2.18106      2.08119      1.87899        -0.081022      0.090515     -0.125916
O	      4.36621      4.11006      2.06379         0.059283      0.429830     -0.044286
O	      4.35570      2.08121      4.28805         0.064510      0.034807     -0.292078
O	      6.47735      4.22228      4.20195         0.110891     -0.100740      0.130667
O	      6.63369      2.11408      6.20540        -0.015625      0.151700     -0.054804
O	      8.64999      4.11821      6.26579        -0.080648      0.003308      0.008066
O	      2.05536      4.23179      4.26497         0.148045     -0.015847     -0.175895
O	      4.33860      6.45574      4.12614        -0.025039     -0.680417     -0.035618
O	      4.29701      4.21094      6.31505         0.090973      0.325588      0.451061
O	      6.55088      6.36503      6.25169        -0.112772     -0.248916      0.217224
O	      6.33311      4.22639      8.32485        -0.800075      0.106601     -0.591334
O	      8.67814      6.52889      8.15591        -0.064169      0.532124      0.413019
O	      2.10299      6.44117      6.24783         0.067376     -0.083886     -0.019407
O	      4.27371      8.41882      6.15551         0.018177     -0.148558     -0.032635
O	      4.27911      6.12788      8.31925         0.150581     -0.476071     -0.101004
O	      6.62858      8.45088      8.19032         0.898828     -0.269990      0.179719
O	      6.51029      6.17896     10.41599        -0.031957      0.377504     -0.373669
O	      8.78215      8.38174     10.37136        -0.529673      0.050562     -0.970661
