# total energy = -90.77710362 eV
 
CRYSTAL
PRIMVEC
-0.000223 2.108775 2.110212 
6.068949 6.383013 -4.277959 
-4.018046 2.115395 -2.116343 
PRIMCOORD
16 1
Li	     -1.96565      4.29262     -2.18715        -0.006692      0.017711     -0.018033
Li	     -0.06504      6.30534     -2.09971         0.006994      0.005906     -0.003868
Li	     -1.96659      2.21172     -0.10396        -0.017250      0.010286     -0.015758
Li	      1.97841      4.10197     -1.99538         0.017377     -0.021565      0.021735
Mn	      0.06812      2.17372      2.03984         0.035217     -0.017087      0.011642
Mn	      2.06997      6.36135     -4.25997        -0.032507      0.007068     -0.000882
Ni	     -0.00715      4.30363     -0.08486        -0.079192     -0.077008      0.073002
Ni	      4.03962      6.32658     -2.11477        -0.030729     -0.026519      0.022942
O	      4.07611      6.30192     -4.19978         0.014093      0.089706     -0.089930
O	      0.17707      6.40516     -4.30378         0.049222     -0.092974      0.094441
O	      2.09209      8.45960     -4.24306         0.110974     -0.021694      0.016566
O	     -2.08934      4.21506      0.00212        -0.079609     -0.012999      0.010720
O	     -0.00546      4.15332     -2.04186         0.002769      0.120975     -0.120304
O	      2.04152      6.52665     -2.31672        -0.119557      0.012258     -0.012668
O	     -0.02673      2.05928      0.04072         0.003275      0.019919     -0.005337
O	      1.92078      4.25270     -0.03705         0.125615     -0.013984      0.015733
