# total energy = -90.51393851 eV
 
CRYSTAL
PRIMVEC
-1.998425 4.100767 -1.999739 
1.908235 4.009682 1.907628 
1.963674 0.047169 -5.871918 
PRIMCOORD
16 1
Li	      1.80719      5.86263     -3.81466         0.520549      0.503534     -0.510770
Li	      1.83496      3.93914     -5.67072         0.407978     -0.006271     -1.086790
Li	     -0.01279      1.96814     -1.91226        -0.284124     -0.256972      0.236241
Li	      1.84671      3.89493     -1.93719         0.119130      0.032968      1.063895
Mn	      3.68901      3.89491     -3.77706         4.301921      0.158196     -1.283191
Mn	     -0.03497      5.86199     -1.97467        -1.854085      2.664282      0.891666
Ni	      0.00132      3.93773     -3.84253        -1.875987     -1.151304     -0.678842
Ni	      1.82087      1.96980     -3.74043         0.568627     -2.377696     -0.649100
O	     -0.02599      4.02071     -5.75829        -0.779738     -0.176088     -1.895826
O	      1.73521      5.90247     -1.94327         2.394068      0.148179      0.288509
O	      1.91884      3.85434     -3.80845        -0.503841      1.172529      0.040313
O	      1.83442      3.71581      0.03293         0.090671      0.029550      1.298303
O	     -0.07037      5.82352     -3.74448        -0.093726      1.665057     -2.715381
O	     -0.06548      5.99583     -0.14760        -0.636596      0.733836      2.626601
O	     -0.12003      4.07213     -1.92756        -0.850580     -2.256625      1.168543
O	      0.05705      1.79020     -0.01842        -1.524265     -0.883174      1.205830
