# total energy = -236.25466546 eV
 
CRYSTAL
PRIMVEC
-0.050502 6.438700 6.309911 
6.353477 -0.011000 6.269799 
4.237519 4.267259 -0.008703 
PRIMCOORD
36 1
Li	      4.15414      4.36711      0.22872        -0.148990      0.207033     -0.012372
Li	      1.91372      0.17812      2.06472         0.040586      0.127390      0.088214
Li	      4.15512      2.31452      2.05148        -0.058221      0.024912      0.158285
Li	      4.31065      6.24067      2.13243         0.003742      0.055759     -0.058151
Li	      2.24660      4.18039      2.10675        -0.019054     -0.048646     -0.055261
Li	      4.30145      2.07153      6.25766         0.157790     -0.179268     -0.058552
Li	      0.03409      4.20860      4.15372        -0.058186     -0.040360     -0.136539
Li	      2.10977      6.47154      4.23313         0.039090      0.092227     -0.073037
Li	      8.42682      8.53295      8.46134         0.041657     -0.030443      0.197775
Sc	      4.15328      6.45701     10.38637        -0.049511      0.144947      0.149932
Sc	      6.32010      4.21570      6.33822         0.516779     -0.535555     -0.129855
Ti	      4.09828      6.48328      6.37025         0.213714      0.037865     -0.082766
Mn	      8.45027      2.14172      6.27031        -0.463908      0.350687     -0.177826
V	      6.57797      6.34566      8.46890         0.015530     -0.143925      0.550784
Cr	      4.22673      4.30577      4.11346         0.217875     -0.352387     -0.302919
Fe	      6.31933      8.55692      6.32053        -0.101466     -0.118240     -0.132661
Cu	      6.31787      2.11813      4.16055        -0.040865      0.020701     -0.068923
Cu	      2.12157      2.21581      4.05906         0.074874      0.087766     -0.293235
O	      2.06908      2.17644      1.85500         0.087935     -0.021165      0.251281
O	      4.21813      4.29317      2.17276         0.031331      0.022330      0.033028
O	      4.26417      2.20431      4.14758         0.132930      0.035581      0.014927
O	      6.32459      4.50891      4.15866        -0.166676     -0.264229      0.130849
O	      6.31824      2.15673      6.17869        -0.069465      0.233749      0.516306
O	      8.40933      4.24456      6.16415        -0.012908      0.210892     -0.045774
O	      2.23470      4.15987      4.27845        -0.273408      0.332348      0.770258
O	      4.25608      6.32417      4.33184        -0.281692      0.138217      0.420970
O	      4.24517      4.38476      6.22023        -0.998393      0.074698      0.198491
O	      6.24731      6.37730      6.55534        -0.228334      0.681234     -0.485958
O	      6.33155      4.47763      8.37076        -0.023777     -0.074164     -0.060095
O	      8.30483      6.41145      8.40071         0.149970      0.021602      0.035094
O	      2.19224      6.44785      6.30336        -0.033655     -1.192898      0.090617
O	      4.19065      8.38697      6.26736         1.072572      0.040237     -0.047180
O	      4.23798      6.34936      8.30878        -0.131362     -0.044968     -0.443878
O	      6.31927      8.27750      8.39480         0.030402      0.143862     -0.838747
O	      6.26815      6.30233     10.26829         0.151429      0.071690     -0.007408
O	      8.33495      8.63150     10.56870         0.181664     -0.109478     -0.095675
