# total energy = -236.57059427 eV
 
CRYSTAL
PRIMVEC
0.027056 6.239677 6.385291 
6.290535 0.024614 6.387475 
4.216376 4.184231 -0.006243 
PRIMCOORD
36 1
Li	      2.11400      2.08223      0.12453         0.005903      0.072610      0.006465
Li	      6.36895      8.33875     10.68960         0.016961     -0.014716      0.054382
Li	      0.12223      2.10865      2.08960        -0.013380      0.019820     -0.007549
Li	      2.07621      4.03835      2.11697        -0.040127     -0.027446     -0.016414
Li	      2.04991      2.13762      4.18702        -0.014364     -0.012421     -0.001083
Li	      8.45445      6.24820      6.39332        -0.005644     -0.015102      0.004308
Li	      0.06871      4.13312      4.20547         0.012916     -0.000601     -0.040705
Li	      6.28599      8.27891      6.42603         0.017726     -0.015611     -0.023038
Li	      6.33822      6.27931      8.43658        -0.020531     -0.018078     -0.049816
Sc	      4.34991      6.26020     10.70128         0.022159      0.031613      0.055415
Sc	      6.34562      4.09617      6.46141         0.076623      0.022332      0.027301
Ti	      4.15026      4.10103      4.20654        -0.148410     -0.081822     -0.014374
Mn	      4.28316      6.38045      6.33861        -0.009279     -0.014458     -0.075588
V	      8.39651      6.26892     10.59536        -0.064649      0.030559      0.006547
Cr	      2.08666      0.05635      2.12798         0.031277      0.013655     -0.038650
Fe	      8.39027      8.32533      8.54716        -0.018518      0.025650     -0.086093
Ni	      6.28282      0.07920      6.42131        -0.002754     -0.070078      0.075312
Ni	      4.22682      8.34812      8.46078         0.099546     -0.047892      0.089568
O	      2.15705      2.01513      2.14572        -0.103194      0.003456      0.025028
O	      4.29086      4.16727      2.20095        -0.007646      0.133747      0.128564
O	      4.19753      2.18547      4.22700         0.015115      0.149213      0.085927
O	      6.24965      4.19960      4.18824        -0.034874     -0.003716     -0.006260
O	      6.26713      2.09225      6.41715        -0.001594      0.121712     -0.008194
O	      8.40623      4.23298      6.34027        -0.091782     -0.027853      0.038975
O	      2.23597      4.26162      4.20935         0.105417     -0.044276     -0.020089
O	      4.08560      6.13600      4.22370         0.032126      0.004990     -0.042085
O	      4.22518      4.26892      6.25776        -0.029188     -0.044516     -0.025051
O	      6.17502      6.25389      6.37083         0.023834      0.028169     -0.025932
O	      6.13247      4.17992      8.47042         0.130023      0.027238      0.018730
O	      8.32280      6.33594      8.76895        -0.016599     -0.103300     -0.103325
O	      2.21473      6.29605      6.29630         0.047572     -0.011409      0.067806
O	      4.27189      8.31865      6.42232        -0.026620     -0.021365     -0.120499
O	      4.13458      6.23149      8.57950         0.027978     -0.086194      0.011509
O	      6.40608      8.45211      8.47066         0.002770      0.002923      0.012933
O	      6.39552      6.25661     10.73981        -0.011736     -0.006713     -0.092172
O	      8.43733      8.32759     10.56083        -0.007057     -0.020120      0.088147
