# total energy = -242.57867117 eV
 
CRYSTAL
PRIMVEC
0.013985 6.309741 6.547583 
6.248917 0.023645 6.537401 
4.177001 4.210995 0.005024 
PRIMCOORD
36 1
Li	      6.26854      6.30077     13.00163        -0.040324     -0.005371     -0.076444
Li	      6.29348      8.40432     10.92056         0.014554      0.015466      0.006523
Li	     10.35714      6.43803      8.77538         0.028287     -0.000932      0.000100
Li	      6.21923      6.33801      4.49941        -0.055365      0.007804      0.084962
Li	      4.12931      2.22776      6.57679         0.029169     -0.032858      0.031338
Li	      6.17751      4.23505      6.68918        -0.053752      0.030559      0.043604
Li	      6.25008      4.18730     10.80733         0.025587     -0.049988     -0.076684
Li	      4.32055      4.14362      8.64005        -0.025920      0.076536     -0.083748
Li	      6.30451      6.27295      8.67508        -0.070772      0.006439     -0.048912
Sc	      4.31492      6.37699     10.94262         0.029988     -0.027508     -0.051984
Sc	      8.22894      4.25189      8.67833        -0.143186      0.086654     -0.046161
Ti	      6.24242      4.13959      2.25721         0.365029     -0.311399      0.241192
Mn	      6.23901      8.37315      6.52321         0.050934     -0.087566      0.018432
V	      8.18568      2.10324      6.52331        -0.124903      0.040099     -0.067548
Cr	      4.19137      4.21921      4.38025         0.019611      0.165092      0.188326
Fe	      4.18670      2.12728      2.20364         0.032287     -0.140889      0.012627
Fe	      8.30194      6.39999     10.73569         0.112306      0.016133      0.065108
Co	      4.22972      6.28236      6.55533        -0.171812      0.152778     -0.048219
O	      2.06968      2.02896      1.99895        -0.051964     -0.054174     -0.070399
O	      4.25139      4.26600      2.31700         0.128858      0.013365      0.026916
O	      4.20598      2.15184      4.29801        -0.056506     -0.005695      0.101083
O	      6.24527      4.25760      4.20649        -0.017999     -0.010150     -0.257345
O	      6.43749      2.09674      6.52352         0.117973     -0.018580     -0.014797
O	      8.37052      4.09941      6.52460        -0.009756     -0.068168      0.018375
O	      2.16192      4.26875      4.30453         0.011540     -0.012950     -0.036866
O	      4.07543      6.23061      4.43311         0.003236     -0.048419     -0.113719
O	      4.09874      4.20724      6.38779        -0.001616      0.301123     -0.002117
O	      6.25970      6.49423      6.54128        -0.523416     -0.036944     -0.002698
O	      6.28517      4.23090      8.68883         0.163952     -0.017563     -0.006859
O	      8.34895      6.32385      8.80414         0.003320     -0.090414     -0.116789
O	      2.06598      6.27828      6.65188         0.406704      0.008776     -0.037512
O	      4.14516      8.38065      6.65123         0.102020     -0.283465     -0.021050
O	      4.06084      6.29263      8.81550        -0.178605     -0.014887      0.176119
O	      6.32030      8.57170      8.67899         0.017287      0.386411      0.006179
O	      6.33179      6.35568     10.92455        -0.098716     -0.019763      0.045096
O	      8.40113      8.40773     11.09446        -0.038028      0.030445      0.113873
