# total energy = -240.93638481 eV
 
CRYSTAL
PRIMVEC
0.017404 6.354704 6.304803 
6.379150 0.032679 6.289800 
4.279357 4.252810 -0.004143 
PRIMCOORD
36 1
Li	      2.13150      2.13896      0.04815        -0.038288     -0.004187      0.025419
Li	      2.07269      0.13971      2.09201         0.021778      0.041633      0.031544
Li	      0.05818      2.21423      2.17788        -0.002181      0.029836      0.051149
Li	      6.25606      6.36803      4.20114        -0.057615      0.021162      0.000453
Li	      8.54374      6.38910      6.34008         0.001614      0.033442      0.016356
Li	      6.28139      4.34988      6.32939        -0.020601     -0.011143      0.002033
Li	      4.14353      8.31025      4.17483         0.001416     -0.071575     -0.046750
Li	      2.27748      6.36407      4.09581        -0.021501     -0.021454     -0.018938
Li	      4.36094      4.17086      8.37168         0.016737     -0.033927     -0.065856
Sc	      4.17451      2.09125      2.09840        -0.035510     -0.102836      0.059739
Sc	      2.21038      4.19386      6.19861         0.054481     -0.096905     -0.024662
Ti	      6.44196      0.14019      6.28765         0.064900      0.208015     -0.187304
Mn	      6.42668      6.30286      8.38386         0.028535     -0.086929     -0.038461
V	      6.54910      8.53838     10.51702         0.148123     -0.116916      0.010963
Cr	      4.32589      4.32329      4.17539         0.000996      0.002032      0.068420
Fe	      8.43674      4.25633      4.28466         0.094718      0.093967     -0.030638
Fe	      8.42379      4.27212      8.41277        -0.055702      0.030740     -0.076018
Ni	      4.27816      6.36878      6.23456        -0.096846     -0.025163      0.092510
O	      2.17118      2.22387      2.11107         0.073695     -0.049285     -0.004898
O	      4.24133      4.25909      2.05327        -0.007869     -0.011853     -0.032795
O	      4.48940      2.22149      4.16010         0.119897      0.084781     -0.020320
O	      6.34399      4.16203      4.15060        -0.047778     -0.055302     -0.021093
O	      6.42837      2.06543      6.20857         0.008397     -0.232806     -0.082969
O	      8.70650      4.28417      6.32752         0.170774      0.003540      0.132287
O	      2.29882      4.23791      4.14052         0.030559      0.011891      0.076959
O	      4.25852      6.29787      4.21830        -0.040604     -0.012369     -0.166011
O	      4.26386      4.29503      6.18851        -0.090137     -0.051708     -0.042214
O	      6.33955      6.42193      6.25326         0.097410      0.043454     -0.028977
O	      6.44253      4.34638      8.43532        -0.031189      0.007642     -0.020460
O	      8.36088      6.28329      8.38654        -0.045364      0.026093     -0.023004
O	      2.03087      6.33242      6.36641        -0.234588      0.004474      0.042587
O	      4.33731      8.58718      6.30379         0.015721      0.119873      0.032251
O	      4.38731      6.37007      8.43561         0.047977      0.097557     -0.016957
O	      6.40268      8.34589      8.44921        -0.022769     -0.001214      0.084426
O	      6.35520      6.50879     10.64657         0.103623      0.104254      0.227219
O	      8.36177      8.48002     10.47189        -0.252810      0.021185     -0.005990
