# total energy = -244.47125090 eV
 
CRYSTAL
PRIMVEC
0.010977 6.397855 6.257613 
6.423976 0.013660 6.255468 
4.300178 4.281656 -0.007909 
PRIMCOORD
36 1
Li	      0.02514      0.03785      0.03513        -0.064151     -0.019201     -0.014636
Li	      6.32935     10.49496      8.37123        -0.016938      0.060776     -0.017139
Li	      6.40053      8.60603     10.28706        -0.034010      0.001754      0.065294
Li	     10.61215      6.38805      8.32128         0.022528      0.042796     -0.002274
Li	      4.34307      4.25534      4.14379         0.003625      0.014030      0.046705
Li	      4.28307      2.28527      6.32107         0.031782      0.021647     -0.003093
Li	      6.54784      8.52463      6.38974         0.001224     -0.006495     -0.104375
Li	      8.33858      8.45010      8.26739        -0.017298      0.020709      0.031066
Li	      6.53593      6.57307      8.25401        -0.017112     -0.064979      0.015083
Sc	      4.40167      6.40331     10.35394        -0.042579      0.056623      0.044854
Sc	      6.44335      6.44957      4.19147         0.038099      0.015836     -0.007174
Ti	      8.39615      2.05904      6.28761        -0.126811     -0.069272      0.042075
Mn	      4.28465      6.36316      6.32652        -0.002389      0.027497      0.005282
V	      8.66623      4.34087      8.29276        -0.108908      0.215329      0.080373
Cr	      4.39687      8.57412      8.30385        -0.049161     -0.015709     -0.035183
Fe	      6.36948      4.31889      6.31640         0.148603     -0.022963      0.002921
Fe	      6.43168      4.29916     10.34432         0.019382     -0.086689      0.085145
Fe	      8.48595      6.39236     10.37866         0.062324     -0.009961      0.223411
O	      2.23611      2.19833      2.00561         0.000359      0.074695     -0.086182
O	      4.22027      4.18444      2.03379         0.102367     -0.020024     -0.029756
O	      4.25256      2.10007      4.07999         0.012073     -0.049005     -0.007419
O	      6.52660      4.36286      4.25390         0.042677     -0.029073     -0.032683
O	      6.54520      2.24413      6.29225         0.211460     -0.057326     -0.019803
O	      8.57535      4.14115      6.22794        -0.046744     -0.133490     -0.173140
O	      2.18071      4.32120      4.12903         0.006915      0.012790      0.143784
O	      4.26622      6.40478      4.32379        -0.010671     -0.052565     -0.062793
O	      4.39973      4.41024      6.32241        -0.088134     -0.019982      0.004970
O	      6.53204      6.34901      6.21929        -0.037487      0.025681      0.053974
O	      6.63351      4.24500      8.29952         0.042691     -0.043520     -0.051253
O	      8.63271      6.37334      8.44273         0.035846     -0.199092     -0.201053
O	      2.07095      6.53999      6.19498        -0.001928      0.200586     -0.063081
O	      4.18314      8.37070      6.26774        -0.046216     -0.037214      0.070600
O	      4.29968      6.48928      8.28128         0.002274      0.049527      0.019126
O	      6.33727      8.56408      8.30936         0.046405      0.039643     -0.027118
O	      6.47897      6.40644     10.45951        -0.026038      0.060629     -0.037283
O	      8.57866      8.52225     10.52832        -0.094058     -0.003990      0.040774
