# total energy = -231.55660379 eV
 
CRYSTAL
PRIMVEC
0.026399 6.373864 6.261107 
6.227959 0.043579 6.242911 
4.172889 4.257890 0.008873 
PRIMCOORD
36 1
Li	      2.09070      2.13626      0.11889        -0.004274      0.003271      0.042904
Li	      2.23524      6.41582      8.17922         0.022015      0.024641      0.015629
Li	      4.17070      8.39720      8.24517        -0.044714      0.002561      0.025141
Li	      4.16608      6.41217     10.32907         0.011696     -0.026681     -0.047860
Li	     10.28051      6.41810      8.23942        -0.023464      0.018467      0.024582
Li	      8.32851      4.41822      8.22038         0.000788      0.011296      0.038026
Li	      8.32712      6.40472      6.45061        -0.009993      0.029741      0.008373
Li	      6.22049      8.61105      6.37560        -0.009454      0.066546     -0.007745
Li	      4.16547      4.27391      8.23397        -0.010604     -0.011604      0.038852
Sc	      4.16143      4.31718      4.06316        -0.016369      0.009880     -0.088447
Sc	     10.31847      8.57157     10.39010        -0.026808      0.008971      0.016599
Ti	      2.22669      2.14013      4.04745         0.008477      0.064146     -0.837254
Mn	      6.32225      4.27449      6.33092        -0.005410     -0.101721     -0.022942
V	      6.33368      8.51835     10.36836         0.019934      0.065546      0.055305
Cr	      4.16034      4.24192      0.11432        -0.018846      0.041778     -0.018342
Ni	      8.32609      6.43533     10.40227         0.044277     -0.032286      0.085907
Ni	      4.13200      6.39316      6.36196        -0.057048      0.028235     -0.074129
Ni	      6.24964      6.40665      8.30254         0.031295      0.022750      0.026728
O	      2.06933      2.04590      2.26430         0.108871      0.054388      0.773672
O	      4.17941      4.30013      2.05216        -0.033036     -0.024228      0.081262
O	      4.13722      2.21020      4.16843        -0.141838     -0.001043      0.002820
O	      6.28354      4.27156      4.30959        -0.002870      0.015025      0.075320
O	      6.21384      2.20751      6.10059         0.001104      0.084524      0.017604
O	      8.25434      4.25802      6.26164        -0.054795      0.023266     -0.011777
O	      2.08817      4.09634      4.22480         0.051800     -0.208949      0.014995
O	      4.25948      6.42693      4.23288         0.105247     -0.047962     -0.060033
O	      4.35239      4.31381      6.20551         0.081449     -0.142748     -0.006942
O	      6.26341      6.20268      6.20503         0.073871     -0.081262     -0.121504
O	      6.26534      4.27749      8.24002        -0.007540     -0.098734     -0.073211
O	      8.25100      6.41136      8.43918         0.081664      0.020100     -0.170781
O	      2.02850      6.34225      6.20454        -0.061433      0.041776      0.085987
O	      4.17373      8.60659      6.20859         0.019310      0.074424     -0.020292
O	      4.25213      6.41257      8.31090        -0.056356     -0.028073      0.194817
O	      6.23590      8.52950      8.59480        -0.003322      0.043959     -0.114670
O	      6.24089      6.49205     10.51398        -0.117058     -0.046299      0.047126
O	      8.26720      8.51124     10.43012         0.043433      0.096299      0.004278
