# total energy = -243.03540328 eV
 
CRYSTAL
PRIMVEC
0.023235 6.206472 6.405659 
6.381438 -0.009228 6.438476 
4.245354 4.150715 0.003004 
PRIMCOORD
36 1
Li	      4.32135      2.03354      2.27260         0.019157     -0.029914     -0.035428
Li	      4.38405      6.22663     10.57058         0.006009     -0.000257      0.018224
Li	      6.28325      2.03864      4.24233        -0.028793     -0.042333      0.030805
Li	      4.21606      6.24250      2.26358         0.000139      0.062246     -0.009421
Li	      6.33095      6.24698      4.31622        -0.022897      0.007764      0.031019
Li	      8.44591      6.22675      6.40030        -0.012116      0.023676     -0.013273
Li	      8.55263      6.21783     10.64503        -0.027312      0.019913      0.004134
Li	      6.37872      8.21533      6.48943         0.018954      0.016352      0.050993
Li	      8.45396      8.26759      8.76573         0.027096     -0.032534     -0.002906
Sc	      8.55394      8.20906     12.72880         0.066065     -0.029706      0.014065
Sc	      6.35544      4.16771      6.38802        -0.076072      0.001389      0.001230
Ti	      4.20122      4.04244      4.31873        -0.011419     -0.214627      0.216315
Mn	      6.49418     10.27456      8.62292         0.072799      0.047781     -0.024805
Mn	      6.37223      6.28222      8.60234        -0.022565      0.043179     -0.003066
V	      2.15410      4.16396      2.18424        -0.099122     -0.061688     -0.001971
Cr	      6.41242      6.21376     12.79952         0.066201     -0.045650     -0.024090
Co	      4.30560      6.22181      6.39437         0.015087     -0.069271     -0.103523
Co	      0.02490      4.13066      4.25793         0.036908     -0.044739      0.067838
O	      2.12579      2.27469      2.05633         0.008464      0.019707      0.019611
O	      4.15741      4.19385      2.14960        -0.095853     -0.008304     -0.008367
O	      4.20910      2.22892      4.25742        -0.038660      0.295334     -0.003990
O	      6.19578      4.16087      4.30343        -0.119432      0.004354      0.048993
O	      6.43707      2.03076      6.37033         0.050532     -0.004769      0.000260
O	      8.54469      4.13788      6.51886         0.027180      0.011015      0.050076
O	      2.13937      4.14576      4.15301         0.071893     -0.010238     -0.098649
O	      4.23723      6.25904      4.30494        -0.005390      0.089527      0.237762
O	      4.27170      4.12507      6.24211        -0.012045      0.013865     -0.236435
O	      6.38864      6.16925      6.43755        -0.047683     -0.015862     -0.004928
O	      6.45776      4.20987      8.65697         0.066874     -0.044435      0.022773
O	      8.41413      6.03401      8.56732         0.051310     -0.058564     -0.041761
O	      2.05178      6.18190      6.50439        -0.045987      0.042706     -0.052827
O	      4.28811      8.33902      6.21561        -0.030220      0.039861     -0.083452
O	      4.35557      6.24319      8.50110         0.007674     -0.017911     -0.096624
O	      6.43250      8.18478      8.63822        -0.020174      0.002479     -0.070720
O	      6.41084      6.07444     10.81376         0.024762     -0.029997      0.002845
O	      8.73342      8.28053     10.70510         0.078637      0.019653      0.099296
