# total energy = -91.17676899 eV
 
CRYSTAL
PRIMVEC
-2.008834 4.122125 -2.010154 
1.918174 4.030566 1.917563 
1.973901 0.047415 -5.902501 
PRIMCOORD
16 1
Li	      1.82607      5.92385     -3.85450         0.432619      0.423020     -0.421654
Li	      1.85412      3.98028     -5.72995         0.340151     -0.005497     -0.924972
Li	     -0.01292      1.98870     -1.93224        -0.242555     -0.217766      0.212059
Li	      1.86599      3.93560     -1.95743         0.089545      0.033928      0.916977
Mn	      3.72754      3.93559     -3.81651         3.648472      0.127828     -1.148335
Mn	     -0.03533      5.92321     -1.99530        -1.520014      2.244123      0.723076
Ni	      0.00133      3.97885     -3.88266        -1.571570     -0.940862     -0.579052
Ni	      1.83989      1.99037     -3.77950         0.478733     -1.998977     -0.562342
O	     -0.02626      4.06271     -5.81843        -0.664262     -0.172480     -1.650721
O	      1.75333      5.96412     -1.96356         1.955292      0.099941      0.238978
O	      1.93888      3.89459     -3.84823        -0.362028      0.995867      0.046917
O	      1.85358      3.75461      0.03327         0.049365      0.011659      1.152770
O	     -0.07110      5.88434     -3.78358        -0.058872      1.409597     -2.220134
O	     -0.06616      6.05845     -0.14915        -0.535078      0.643977      2.189891
O	     -0.12129      4.11466     -1.94769        -0.741464     -1.872668      0.998333
O	      0.05764      1.80890     -0.01861        -1.298333     -0.781690      1.028211
