# total energy = -237.56334509 eV
 
CRYSTAL
PRIMVEC
0.014294 6.312280 6.268433 
6.621164 -0.009907 6.292645 
4.405889 4.215930 0.002287 
PRIMCOORD
36 1
Li	      2.48418      6.15795      8.37609        -0.001192      0.106447     -0.015851
Li	      4.61377      8.23040      8.37420         0.022854      0.027783     -0.011151
Li	      6.64100      2.11919      8.34505        -0.023958      0.020653      0.000834
Li	      6.68772      6.28275      4.35766        -0.010956      0.038088     -0.036162
Li	      6.48361      4.35345      6.25124        -0.051010     -0.044705      0.044588
Li	      6.71435      8.22107      6.52934         0.011685      0.026267     -0.020647
Li	      4.70220      6.26074      6.46846         0.023357      0.027977      0.001087
Li	      4.21351      4.45162      8.19696         0.052847     -0.035902     -0.025564
Li	      6.39174      6.45101      8.28481         0.011496     -0.100541      0.012151
Sc	      4.56144      4.18673      4.19877        -0.029186      0.035415     -0.027794
Sc	      8.80761      6.35478     10.34990         0.011121      0.047264      0.000641
Ti	      4.52679      4.21872      0.13082         0.108694     -0.002607      0.058558
Mn	      8.82660      2.14546      6.32740         0.018075      0.001102     -0.075490
Mn	      8.78122      4.16865      8.33983         0.019265      0.050916      0.039507
V	      6.64427      4.15440     10.41075         0.039466     -0.032225      0.201641
Cr	      8.70694      6.33416      6.29160         0.079309     -0.075413      0.075559
Cu	      6.53180      2.14426      4.08276         0.041743     -0.094732      0.147120
Ni	      4.27861      0.05788      4.04916        -0.007014     -0.034836      0.139265
O	      6.66725      8.39894      8.48609        -0.000257      0.021978     -0.157717
O	      2.08288      2.28263      1.90265        -0.029868     -0.087940      0.073012
O	      4.36857      4.22079      1.99092         0.045205     -0.034182     -0.105466
O	      4.28886      2.11389      4.27625        -0.168466      0.030173     -0.018602
O	      6.58812      4.17670      4.18631         0.008287      0.112197      0.018981
O	      6.47953      1.92327      6.13984        -0.059881     -0.031103      0.076195
O	      8.91557      4.16285      6.30593         0.027207      0.045507      0.052746
O	      2.15641      4.25471      4.06061        -0.024238     -0.070670     -0.039484
O	      4.30239      6.36240      4.24819        -0.004946     -0.052548     -0.002369
O	      4.42624      4.09113      6.22725        -0.015099      0.061175      0.045660
O	      6.76750      6.27914      6.33333        -0.075802     -0.038703      0.023472
O	      6.61343      4.15208      8.65144        -0.041577      0.048250     -0.251913
O	      8.87066      6.11498      8.32471        -0.004163      0.065740     -0.049740
O	      2.02767      6.50087      6.24001        -0.139643     -0.084907      0.058346
O	      4.47396      8.58410      6.13127         0.021563     -0.013031     -0.008438
O	      4.42161      6.33410      8.38205        -0.009193      0.002221     -0.239407
O	      6.68602      6.19792     10.57987         0.002155      0.028863     -0.010705
O	      9.03531      8.44569     10.62474         0.152121      0.036029      0.027138
