# total energy = -244.56245077 eV
 
CRYSTAL
PRIMVEC
-0.000727 6.531688 6.367548 
6.213410 0.053610 6.314090 
4.170926 4.347124 0.006373 
PRIMCOORD
36 1
Li	      8.27111      8.82106     12.57625         0.051759     -0.032973      0.021677
Li	      8.25226     10.79720     10.59759         0.040480      0.049773     -0.006180
Li	      6.40556      8.72231     10.47586         0.010024     -0.034847     -0.004668
Li	      8.28115      4.44539      8.37166         0.022318     -0.034366      0.036944
Li	      4.14523      2.24547      6.29972        -0.008563      0.039519     -0.033649
Li	      8.27163      6.78278     10.63771         0.011000     -0.010692      0.019943
Li	      2.17386      4.46493      6.39451         0.000260     -0.034858     -0.055238
Li	      4.07955      6.37122      6.40986        -0.008773     -0.011123     -0.066285
Li	      8.25626      8.76903      8.57659         0.006045     -0.006097      0.013603
Sc	      6.10590      0.11620      6.24600         0.170956      0.023880     -0.035806
Sc	     10.28617      8.75464     10.65733         0.058148     -0.017525      0.011735
Ti	      6.08351      2.36888      8.39615        -0.140856     -0.089792     -0.097007
Mn	      4.14144      8.68165      8.42310        -0.042550      0.001792     -0.038298
Mn	      4.14522      4.34957      4.24912        -0.095568      0.052657      0.011806
V	      6.30268      6.52680      4.39548        -0.206767      0.084267     -0.019727
Cr	      6.26049      6.59767      8.45619         0.006256      0.044945     -0.037971
Fe	      2.18847      6.48336      8.39590        -0.022043     -0.013481      0.183074
Co	      6.29342      4.33293      6.30597        -0.056164      0.037816     -0.018744
O	      1.94100      2.09130      2.30706        -0.041240     -0.023276     -0.027802
O	      4.17844      4.50646      2.18418         0.003083      0.043739      0.035243
O	      4.00056      2.16111      4.19529         0.131299     -0.027008     -0.073524
O	      6.17196      4.45993      4.09711        -0.032979     -0.017675      0.250769
O	      6.22391      2.23077      6.49418         0.004301     -0.040050      0.287069
O	      8.29052      4.41510      6.35210        -0.104041     -0.018296      0.013964
O	      2.15624      4.10970      4.27334        -0.024015      0.096188     -0.116708
O	      4.22320      6.57897      4.13722        -0.066425      0.061535     -0.054502
O	      4.23740      4.35435      6.11880         0.076549     -0.037896      0.054162
O	      6.22010      6.47682      6.26656        -0.012319     -0.002446      0.074237
O	      6.23385      4.36826      8.48439        -0.001743     -0.074735     -0.163063
O	      8.36028      6.60101      8.45772         0.106976     -0.022417      0.020552
O	      2.04252      6.54251      6.52137        -0.004393      0.032458     -0.193516
O	      4.15258      8.87657      6.34717         0.030619      0.000671      0.000594
O	      4.19992      6.51603      8.42345         0.135262     -0.018596      0.015028
O	      6.27295      8.64959      8.44795         0.020449     -0.023440      0.049096
O	      6.27069      6.52699     10.48270         0.011779     -0.012608     -0.048409
O	      8.33823      8.73764     10.60277        -0.029122      0.034958     -0.008401
