# total energy = -242.97033085 eV
 
CRYSTAL
PRIMVEC
0.010474 6.296150 6.263154 
6.482711 -0.019347 6.293494 
4.312220 4.207948 -0.003231 
PRIMCOORD
36 1
Li	      4.27448      4.15114      0.04490        -0.024297     -0.011072      0.032481
Li	      4.29952     -0.00725      4.17367        -0.034828     -0.001819      0.036872
Li	      8.57844      4.22504      8.37361        -0.058353     -0.015397     -0.013991
Li	      8.52391      6.38891      6.36193         0.008442     -0.054869     -0.002285
Li	      6.37775      4.24584      6.32654        -0.003347      0.008000     -0.025163
Li	      6.45514      4.19535     10.44219        -0.025310     -0.007605      0.013234
Li	      6.60606      8.27704      6.31696         0.087427      0.020447     -0.005116
Li	      4.41901      6.25825      6.27945         0.042516      0.039111     -0.016420
Li	      4.38367      4.14260      8.22119        -0.005235     -0.005957     -0.062109
Sc	      2.28386      6.22739      8.26784         0.068295     -0.026754      0.026740
Sc	      6.45188      2.07451      4.26670        -0.027650      0.064676     -0.025812
Ti	      2.13995      6.22465      4.21468        -0.061545     -0.256921      0.044083
Mn	      6.48640      6.34012      4.29038         0.012118      0.025543      0.019191
Mn	      4.32404      4.20456      4.23151         0.012966     -0.015032      0.143288
V	      8.69541      2.28696      6.30562         0.081862      0.265358      0.046560
Cr	      6.41392      2.14065      8.33570         0.029315      0.063145     -0.008493
Fe	      6.40678      6.14704      8.27032         0.062358      0.119536      0.001592
Cu	      4.37316      8.38083      8.31834         0.022570     -0.001856     -0.033580
O	      1.95877      2.09286      2.00717        -0.193861     -0.023092     -0.021693
O	      4.37695      4.27076      2.21630         0.026250      0.099680      0.020059
O	      4.34887      2.12623      4.09018         0.089186      0.046327      0.120516
O	      6.49988      4.16732      4.10486         0.010711     -0.082407     -0.040202
O	      6.59234      2.06281      6.33099         0.021864     -0.012399      0.006136
O	      8.68194      4.04594      6.25015        -0.001369     -0.150491      0.022846
O	      2.16213      4.31577      4.23011        -0.029728      0.295085     -0.048543
O	      4.20282      6.31473      4.08964        -0.119277     -0.097319     -0.036956
O	      4.34431      4.18650      6.08447        -0.011509      0.008031     -0.103945
O	      6.50942      6.28957      6.37921        -0.009170      0.010232     -0.082516
O	      6.44239      4.18462      8.36163        -0.003834     -0.141855      0.046671
O	      8.68646      6.29156      8.49382        -0.024493     -0.025678      0.101277
O	      2.14441      6.39384      6.18869        -0.032497     -0.007172     -0.111335
O	      4.10966      8.40828      6.40173        -0.095583     -0.013819     -0.166743
O	      4.38744      6.32045      8.36973        -0.055837     -0.032809      0.003230
O	      6.61245      8.38003      8.38930         0.126862     -0.018057      0.060411
O	      6.65052      6.28287     10.34808         0.125239      0.028083      0.092429
O	      8.60925      8.26826     10.61583        -0.010260     -0.090873     -0.032716
