# total energy = -242.49884308 eV
 
CRYSTAL
PRIMVEC
0.000674 6.272880 6.488526 
6.368694 -0.006352 6.495318 
4.233004 4.173617 0.008784 
PRIMCOORD
36 1
Li	      6.28455      0.06602      6.46663        -0.029418     -0.010758     -0.047494
Li	      8.51980     10.42955     10.87494         0.012880     -0.019840      0.003586
Li	      4.17556      6.14943      2.24421        -0.019259      0.025438      0.072166
Li	      8.55140      4.25924      8.61379         0.041227      0.007605     -0.062271
Li	      4.28649      4.24173      4.19512        -0.001441      0.015833     -0.038599
Li	      6.44364      4.13054      6.44640        -0.000340      0.011473     -0.031682
Li	      6.38639      4.26907     10.75866        -0.018426      0.066213     -0.006909
Li	      8.40102      6.24530     10.68534        -0.053438     -0.017575     -0.002418
Li	      6.43623      6.23866      8.78989         0.014555     -0.000614      0.020613
Sc	      8.42080      2.17624      6.46185         0.008220     -0.024585     -0.046600
Sc	      4.24321      2.17347      2.23410        -0.033053     -0.021729     -0.020943
Ti	      2.11276      4.19762      6.34628         0.051011      0.019898     -0.231508
Mn	      6.31562      6.17265      4.30848        -0.016480     -0.005919      0.021825
Mn	      8.50880      6.15835      6.56258         0.015244      0.022529      0.048763
V	      4.41626      4.14171      8.74125        -0.164545      0.003671      0.044803
Cr	      4.27431      6.22746      6.49134        -0.020809     -0.022180      0.063459
Fe	      6.36171      8.22319     10.83333        -0.030163      0.146936     -0.073784
Ni	      6.31693      4.19120      2.20763         0.010725     -0.031359     -0.037856
O	      2.15969      2.07379      2.06870         0.010716      0.131479      0.039184
O	      4.26540      4.15593      2.14557        -0.102360     -0.054098      0.006242
O	      4.18106      2.07929      4.30579        -0.039354      0.053239     -0.092402
O	      6.34026      4.22745      4.28654        -0.008983     -0.012943      0.099861
O	      6.40543      2.10994      6.32925         0.049449      0.021460      0.051398
O	      8.46577      4.11323      6.53138        -0.022805     -0.060756     -0.018526
O	      2.12809      4.07052      4.50623         0.028576     -0.000039      0.271325
O	      4.39715      6.22669      4.49674         0.041805     -0.002472      0.022374
O	      4.09801      4.20880      6.67829        -0.126033      0.084546     -0.025097
O	      6.29752      6.39579      6.57438        -0.115270      0.108541     -0.053494
O	      6.14831      4.22173      8.69120         0.260498     -0.038682      0.016152
O	      8.47440      6.40040      8.69029         0.042075     -0.039261      0.061553
O	      2.21604      6.15827      6.47793         0.084350     -0.100177     -0.010606
O	      4.33620      8.28234      6.54168         0.095054     -0.037669      0.027325
O	      4.17957      6.20348      8.53557         0.052042      0.032081     -0.091952
O	      6.39670      8.38863      8.69200        -0.063423     -0.064379     -0.022823
O	      6.34016      6.35697     10.81285         0.023393     -0.148013      0.027049
O	      8.41070      8.35915     10.74759         0.023778     -0.037893      0.017289
