# total energy = -239.59554807 eV
 
CRYSTAL
PRIMVEC
-0.021044 6.426823 6.274048 
6.363502 0.002269 6.250772 
4.247759 4.274485 -0.004129 
PRIMCOORD
36 1
Li	      2.21572      0.01407      2.16809         0.060643     -0.002810      0.022762
Li	      4.20822      8.48807      8.41504        -0.023752     -0.012261      0.001651
Li	      4.18648      6.46915     10.29447        -0.000365     -0.003733      0.055508
Li	      4.27675      6.37905      2.17381         0.013157     -0.053823     -0.028706
Li	      6.30941      6.46856      4.21985        -0.013499      0.035450      0.005279
Li	      4.22452      4.29250      4.13493        -0.024811      0.008971     -0.025019
Li	      4.08190      2.30141      6.26190        -0.034250      0.072041     -0.017301
Li	      4.30655      8.45190      4.15474         0.022759     -0.010019      0.031182
Li	      6.47624      8.40193      6.27478        -0.009323      0.051894     -0.036932
Sc	      4.25137     10.63683      6.33992        -0.003209     -0.052458      0.006513
Sc	      2.20940      6.40039      4.07586         0.003717     -0.064117      0.016968
Ti	      6.17433      2.18804      4.09832        -0.373144      0.039309     -0.143902
Mn	      2.12103      4.26542      2.11573        -0.025577     -0.006687      0.016610
Mn	      6.31974      4.30214      6.23612         0.076272      0.003708     -0.058159
V	      2.13611      8.53023      6.33281         0.011204     -0.063438     -0.057714
Cr	      4.26824      6.41392      6.26955        -0.027956      0.058972     -0.037096
Ni	      4.22768      4.34680      8.34305         0.036258     -0.044671      0.104093
Ni	      6.32776      6.46084      8.33805         0.030260      0.054697      0.031982
O	      2.08465      2.06783      1.86468        -0.002368     -0.028224      0.071218
O	      4.07612      4.28588      2.06397         0.004205     -0.002658     -0.007153
O	      4.36710      2.11237      4.20442         0.333801      0.024024     -0.024871
O	      6.37833      4.13711      4.31186        -0.041446     -0.076329     -0.007319
O	      6.49116      2.11769      6.17562        -0.025212     -0.055077     -0.043932
O	      8.50929      4.14070      6.36233        -0.030709     -0.017418     -0.036456
O	      2.06596      4.32383      4.01176         0.011141      0.020776      0.048202
O	      4.21396      6.44655      4.24684         0.015054     -0.026928     -0.043702
O	      4.24660      4.40988      6.29013         0.074845     -0.023045     -0.085084
O	      6.26088      6.39452      6.25785         0.049441      0.038165     -0.091697
O	      6.43434      4.32522      8.19131         0.034518     -0.059322     -0.008782
O	      8.42137      6.53736      8.30814         0.123804     -0.058573     -0.005581
O	      2.14408      6.49803      6.25449         0.016438      0.011791      0.015144
O	      4.12347      8.52450      6.25782         0.003435     -0.037743      0.013393
O	      4.28413      6.37768      8.28808        -0.119789      0.126115      0.003585
O	      6.39147      8.58433      8.48645        -0.123275      0.099560      0.246742
O	      6.39058      6.57071     10.47680        -0.036355      0.078798      0.063449
O	      8.43128      8.55622     10.59252        -0.005911     -0.024937      0.005125
