# total energy = -246.20821448 eV
 
CRYSTAL
PRIMVEC
-0.021857 6.372513 6.513031 
6.388464 -0.008105 6.499787 
4.243742 4.224222 0.009693 
PRIMCOORD
36 1
Li	      4.35721     10.35010      6.45647        -0.013346     -0.047655     -0.020008
Li	      2.36025      8.34445      6.47881         0.033652     -0.057245     -0.029887
Li	      4.28126      8.40230      8.37439         0.051629     -0.044275     -0.024785
Li	      4.29578      6.28476      2.21316         0.004155     -0.018258      0.003893
Li	      6.26833      6.37214      4.39795        -0.047519      0.018451      0.036426
Li	      4.22722      8.50604      4.62753         0.015978     -0.004034     -0.019574
Li	      6.10011      8.53414      6.53402        -0.021419      0.026739      0.028797
Li	      4.14506      6.60210      6.44812        -0.058219      0.022264      0.003393
Li	      6.30281      6.38671      8.65089        -0.045529      0.047509     -0.009420
Sc	      6.39921      8.44427     10.83849         0.023999      0.001550     -0.089246
Sc	      2.18332      4.01947      2.20369        -0.008272     -0.061351     -0.052388
Ti	      6.39400      4.32100      6.54447         0.027788      0.158783      0.108983
Mn	      2.08875      6.44475      8.55161         0.095623     -0.036363      0.060997
Mn	      4.20495      4.27845      4.37105        -0.019034     -0.020476      0.045850
Mn	      4.29499      4.31828      8.69093        -0.042544      0.085768      0.016341
V	      8.50414      6.35779      6.59744         0.015576      0.023056     -0.028541
Cr	      2.09923      6.31995      4.46254        -0.042000      0.001112      0.007584
Co	      4.30311      6.37472     10.81475         0.032123      0.003581      0.066508
O	      2.07961      2.02746      2.18192        -0.009385      0.060254      0.013631
O	      4.31793      4.21037      2.32979        -0.065493      0.019594      0.088746
O	      4.26389      2.22023      4.61874         0.020137      0.092798      0.055648
O	      6.44438      4.22996      4.53226         0.043121     -0.009000      0.157079
O	      6.23077      2.25051      6.45146        -0.076063      0.067699      0.035822
O	      8.41984      4.33236      6.51310        -0.061323      0.151495      0.044108
O	      2.07304      4.29856      4.22576        -0.027070      0.016769     -0.033715
O	      4.08982      6.18300      4.36260        -0.004042     -0.065080     -0.008426
O	      4.35993      4.16067      6.46572         0.122959     -0.055377     -0.077720
O	      6.47737      6.23805      6.53572         0.117995     -0.202463      0.009695
O	      6.43561      4.20495      8.45197         0.044420     -0.022884     -0.291448
O	      8.49683      6.30233      8.47674        -0.002993     -0.013165     -0.041582
O	      2.08052      6.35852      6.40960        -0.016908     -0.024144     -0.086148
O	      4.22554      8.48185      6.50548        -0.009917      0.012402     -0.024455
O	      4.07785      6.43011      8.79000        -0.002164     -0.038386     -0.042597
O	      6.37265      8.69884      8.75697        -0.075732     -0.023451      0.040103
O	      6.38769      6.40859     10.76116         0.024376      0.044587      0.020518
O	      8.47796      8.37576     10.83417        -0.024558     -0.110804      0.035819
