# total energy = -244.20686552 eV
 
CRYSTAL
PRIMVEC
0.017785 6.480623 6.207920 
6.484075 0.003179 6.222277 
4.315690 4.322680 0.008993 
PRIMCOORD
36 1
Li	      4.28327      4.36431      0.15036         0.001441      0.077234     -0.070895
Li	      4.24984      2.35285      2.07432         0.048641      0.032897      0.052880
Li	      6.51430      8.62081     10.29877        -0.010602     -0.000190     -0.021316
Li	      0.19047      2.05618      2.11685         0.025962     -0.013776      0.040304
Li	      2.12733      4.21807      2.17577        -0.056010      0.037362      0.014080
Li	      2.22662      2.29750      3.96812         0.036656      0.013880      0.032704
Li	      4.24656      4.24328      4.04866        -0.001995      0.004733     -0.032531
Li	      6.57119      4.34949     10.27532        -0.026185     -0.002872      0.018377
Li	      8.64012      8.57872      8.28393        -0.020127     -0.012918      0.035216
Sc	      4.39036      6.40645     10.30805        -0.060912      0.037615      0.047295
Sc	      6.45864      4.29719      6.26480        -0.013611     -0.019284     -0.051243
Ti	      4.44233      2.15519      6.19260         0.130197     -0.017577     -0.190814
Mn	      6.40869      4.38123      2.14396         0.073658     -0.038201      0.069537
Mn	      8.61103      6.52813     10.29748         0.078878     -0.003562     -0.063429
Mn	      2.15731      4.31548      6.18241         0.078371      0.044485     -0.075383
V	      4.33147      6.56516      6.12310         0.090150     -0.247120      0.003461
Cr	      6.46463      6.48610      8.29732        -0.055648      0.010139     -0.116312
Cu	      2.22459      2.20694      0.07844        -0.019857      0.093299     -0.047254
O	      2.20077      2.21220      1.97875         0.002244     -0.038241      0.091080
O	      4.54518      4.33695      2.08498         0.008497      0.017614     -0.015345
O	      4.25998      2.09310      4.31340         0.030901     -0.031309      0.163767
O	      6.55923      4.27622      4.10413         0.042131     -0.030211      0.009559
O	      6.27700      2.21683      6.27480        -0.365202     -0.036830      0.040188
O	      8.58063      4.49802      6.21920         0.047924      0.060630      0.017359
O	      2.16263      4.38049      4.27749        -0.005951      0.099666     -0.027337
O	      4.33511      6.43416      4.36094        -0.139038      0.030028     -0.145381
O	      4.30616      4.23226      6.19097        -0.013005     -0.000224      0.003150
O	      6.39164      6.42890      6.25917         0.041721      0.058794      0.037517
O	      6.43899      4.46399      8.26152         0.023858     -0.012533      0.060970
O	      8.45306      6.51131      8.16965         0.019676     -0.036713     -0.062066
O	      2.34049      6.47020      6.31298        -0.133273     -0.092010      0.052570
O	      4.44680      8.43544      6.22469         0.170080      0.154722     -0.018663
O	      4.31334      6.40265      8.18130        -0.027665     -0.020600      0.075286
O	      6.48445      8.51356      8.12665        -0.009564      0.050477      0.143865
O	      6.44749      6.54372     10.28644         0.000173     -0.041231      0.002366
O	      8.65880      8.67575     10.55442         0.007485     -0.128171     -0.073563
