# total energy = -248.50745666 eV
 
CRYSTAL
PRIMVEC
-0.011296 6.277019 6.426540 
6.378106 -0.006575 6.421728 
4.256084 4.185393 -0.008197 
PRIMCOORD
36 1
Li	      2.21077      8.34406      6.37839         0.008080     -0.011996     -0.033202
Li	      8.52878     10.43692     10.73330         0.020155     -0.004090      0.008411
Li	      8.47683      4.22448      8.56700         0.033296      0.014946     -0.010163
Li	      4.21405      4.20665      4.31534        -0.036887      0.035402      0.061790
Li	      8.48223      6.25141      6.50032         0.014111      0.031862      0.051510
Li	      0.03016      4.17361      4.30032         0.068483     -0.030784      0.028031
Li	      8.50353      6.26782     10.69232         0.003948     -0.018494     -0.003277
Li	      4.22977      6.28244      6.36248        -0.024977     -0.049730     -0.010003
Li	      6.46429      6.18494      8.58293         0.074484     -0.001791      0.003834
Sc	      4.24998      6.28685      2.19761        -0.093124      0.052942      0.042718
Sc	      2.11580      4.16381      6.37068         0.095321      0.056996      0.026490
Ti	      6.36599      8.30912     10.70624         0.048228     -0.182872      0.053596
Mn	     10.54381      4.13595      6.37474         0.020919     -0.010963      0.004182
Mn	      6.48028      4.22978      6.41589        -0.052153      0.008117     -0.054971
Mn	      4.28229      4.22535      8.56573         0.014367     -0.027764     -0.110226
V	      2.14834      2.10911      4.29627        -0.038001     -0.032388     -0.018396
Cr	      4.19069      8.31450      8.55301        -0.053833     -0.024387     -0.005400
Fe	      6.37815     10.43908      8.55034        -0.047252     -0.041792     -0.009534
O	      2.17499      2.08854      2.21741         0.107877      0.052224     -0.056979
O	      4.27090      4.13144      2.04280        -0.007872      0.000469     -0.112701
O	      4.28253      2.12193      4.14786         0.018027     -0.015377      0.006668
O	      6.34837      4.17385      4.39766         0.053122     -0.066387      0.117899
O	      6.39782      2.22203      6.29602         0.012233      0.050466     -0.036173
O	      8.64270      4.18578      6.40542         0.025024     -0.002696     -0.023037
O	      2.13532      4.09632      4.35691         0.018749      0.079885     -0.039039
O	      4.38557      6.28882      4.20538         0.023292     -0.000942     -0.014726
O	      4.18086      4.21967      6.61418        -0.017196     -0.017708      0.016269
O	      6.43090      6.18999      6.34839         0.021270     -0.031685     -0.004987
O	      6.45150      4.17845      8.39980         0.034856      0.000765      0.014033
O	      8.58775      6.44688      8.58814         0.034241      0.039677     -0.008118
O	      1.91004      6.23565      6.40669        -0.185910     -0.022032     -0.093481
O	      4.24841      8.31408      6.53612         0.014508     -0.038100     -0.015932
O	      4.15077      6.24486      8.57052         0.041607      0.025786      0.096539
O	      6.21810      8.29381      8.66283        -0.068294     -0.034371      0.040678
O	      6.32349      6.42733     10.79218        -0.001772      0.217988      0.024316
O	      8.28175      8.40650     10.51903        -0.178926     -0.001179      0.063379
