# total energy = -91.73370830 eV
 
CRYSTAL
PRIMVEC
-2.019242 4.143483 -2.020569 
1.928112 4.051449 1.927499 
1.984129 0.047661 -5.933084 
PRIMCOORD
16 1
Li	      1.84504      5.98540     -3.89455         0.352632      0.346565     -0.342984
Li	      1.87339      4.02163     -5.78948         0.281633     -0.008688     -0.773400
Li	     -0.01306      2.00935     -1.95231        -0.204218     -0.185648      0.186600
Li	      1.88538      3.97649     -1.97776         0.067677      0.035658      0.773723
Mn	      3.76627      3.97648     -3.85616         3.030875      0.103141     -1.005381
Mn	     -0.03570      5.98475     -2.01603        -1.221801      1.852552      0.573366
Ni	      0.00135      4.02019     -3.92301        -1.287871     -0.753677     -0.477030
Ni	      1.85901      2.01105     -3.81877         0.391513     -1.646714     -0.477289
O	     -0.02654      4.10491     -5.87888        -0.550710     -0.163749     -1.412215
O	      1.77154      6.02608     -1.98396         1.551195      0.050702      0.191653
O	      1.95902      3.93505     -3.88821        -0.236275      0.834072      0.047268
O	      1.87284      3.79362      0.03362         0.016044     -0.002622      1.004128
O	     -0.07184      5.94548     -3.82289        -0.035668      1.179169     -1.768232
O	     -0.06685      6.12139     -0.15069        -0.437856      0.553127      1.789379
O	     -0.12255      4.15740     -1.96792        -0.636396     -1.517132      0.837538
O	      0.05824      1.82770     -0.01880        -1.080773     -0.676757      0.852877
