# total energy = -244.25120710 eV
 
CRYSTAL
PRIMVEC
0.070197 6.373302 6.371471 
6.398867 0.021847 6.419406 
4.288087 4.303059 -0.007578 
PRIMCOORD
36 1
Li	      8.47427      2.21847      6.42196        -0.038537      0.034416     -0.070454
Li	      6.49368      4.31269      2.25328         0.087307      0.028072      0.117257
Li	      4.27107      2.09578      2.22476        -0.007138     -0.100588      0.072869
Li	      4.15060      0.05694      4.18554        -0.048087      0.088287     -0.132248
Li	      6.40242      2.27548      4.28015         0.076306      0.011823      0.014174
Li	      4.39984      4.17053      4.26344         0.048624     -0.036875      0.030280
Li	      4.32921      2.16659      6.32278         0.013594      0.033456     -0.068908
Li	      6.42666      4.22184      6.31995        -0.051270     -0.032191     -0.021486
Li	      4.27516      4.36515      8.52811        -0.003905      0.083415      0.008827
Sc	     10.65971      8.61196     10.64612        -0.072078      0.047875     -0.031677
Sc	      8.58848      6.46394     10.61919        -0.022018     -0.001697     -0.026302
Ti	      6.58723      8.55604      6.52411         0.301048     -0.001315      0.120563
Mn	      2.27968      2.04953      4.24296        -0.007609      0.043608      0.035560
Mn	      4.28923      6.41572      6.50472        -0.066976      0.017178     -0.018661
Mn	      6.40397      6.40441      8.49395         0.063491     -0.079429      0.029304
V	     10.54096      4.37641      6.47222        -0.030472     -0.107385     -0.219194
Cr	      6.44936      2.13772      8.49891        -0.000748      0.150321      0.102773
Ni	      2.20346      4.23295      2.11488        -0.015024     -0.042380      0.010536
O	      2.06572      2.17978      2.26743         0.036581     -0.166870      0.107411
O	      4.28200      4.40440      1.99192         0.161524      0.035769      0.014412
O	      4.11198      2.15287      4.25029        -0.132304      0.017001      0.002173
O	      6.43490      4.50247      4.30502        -0.043765      0.054633      0.004912
O	      6.44585      2.01401      6.50477         0.011230     -0.038036      0.044211
O	      8.75666      4.26063      6.42985         0.086625     -0.007781     -0.033749
O	      2.14528      4.19350      4.29273        -0.034268     -0.035923      0.063329
O	      4.35188      6.45909      4.19000         0.032581     -0.005014     -0.077369
O	      4.14487      4.27979      6.36839        -0.331843     -0.026195      0.031170
O	      6.44279      6.54492      6.25514         0.039530      0.092663     -0.116167
O	      6.51262      4.20226      8.53555        -0.087162     -0.093689     -0.017664
O	      8.64082      6.33788      8.56278         0.101867      0.064396     -0.026341
O	      2.06557      6.24611      6.31592        -0.024867     -0.067926      0.038272
O	      4.43892      8.65268      6.33302         0.052914     -0.003942      0.043406
O	      4.36362      6.38389      8.51300        -0.081898     -0.005649      0.122708
O	      6.47768      8.53756      8.35996         0.027300      0.023628     -0.164723
O	      6.51132      6.39481     10.74588         0.027450      0.025577      0.026591
O	      8.65434      8.46120     10.68888        -0.068000      0.000772     -0.015795
