# total energy = -251.11352056 eV
 
CRYSTAL
PRIMVEC
0.033459 6.397647 6.373420 
6.347590 0.022727 6.384298 
4.232968 4.273590 0.013829 
PRIMCOORD
36 1
Li	      6.39986     10.61579      8.56027         0.008355     -0.009179     -0.003792
Li	      4.34402      8.54738      8.54269        -0.008323      0.014775      0.003223
Li	      6.34347      8.55834     10.55620         0.014081      0.001590     -0.013291
Li	      6.36867      6.40440      4.32632        -0.001749      0.006995      0.014663
Li	      4.26834      2.16453      6.37995         0.051878     -0.029124      0.013432
Li	      6.32901      4.31406      6.35248         0.016080      0.021833     -0.012528
Li	      6.30844      4.38807     10.61098        -0.009532      0.011679     -0.018437
Li	      8.43932      6.45027     10.59362        -0.006836     -0.013647      0.018901
Li	      6.32975      6.50094      8.56053        -0.025994      0.013783      0.006818
Sc	      6.41931      6.41176     12.67883        -0.012086      0.003212      0.014908
Sc	      4.14910      0.13044      4.19858        -0.085799      0.040724     -0.004176
Ti	      4.27262      6.41306      2.20982         0.143037      0.036926      0.167649
Mn	      8.39824      4.37123      8.60041        -0.006003     -0.044792      0.016518
Mn	      4.34537      4.16874      4.26137         0.019849      0.034829      0.015331
Mn	      6.43065      8.46161      6.39109         0.016439      0.061139     -0.001775
Mn	      4.27641      6.41835      6.40945        -0.020336     -0.002656     -0.038066
V	      8.48310      8.56094     12.69550        -0.034798     -0.052682      0.018100
Cr	      8.46560      8.53693      8.56927        -0.015317      0.055578     -0.034366
O	      1.99680      2.18600      1.98189        -0.203656     -0.086109     -0.006730
O	      4.21668      4.38468      2.07042         0.070210      0.067258     -0.044616
O	      4.25162      2.22013      4.24252         0.013500     -0.060791      0.032881
O	      6.28446      4.24940      4.26070         0.022410     -0.002646      0.017829
O	      6.43317      2.09434      6.51027         0.024808     -0.013220      0.074795
O	      8.49583      4.25929      6.36080         0.029346      0.031649     -0.063543
O	      2.32807      4.22866      4.39764        -0.018355     -0.008597      0.047104
O	      4.30421      6.19639      4.14381        -0.029058      0.035250     -0.236251
O	      4.29074      4.37934      6.51359         0.042012      0.020813      0.049657
O	      6.16908      6.48485      6.40131         0.026956      0.015412      0.007596
O	      6.28277      4.11590      8.61784        -0.078053     -0.101284     -0.039575
O	      8.60293      6.50000      8.50727         0.098880      0.073451      0.004102
O	      2.25505      6.40596      6.32936         0.001222     -0.101612     -0.001530
O	      4.18879      8.48728      6.36807        -0.076998     -0.015704     -0.025163
O	      4.23367      6.29918      8.53877         0.039426     -0.000102      0.083469
O	      6.45889      8.52360      8.32819         0.027881      0.001447     -0.012495
O	      6.31418      6.42163     10.67812        -0.022323      0.019078      0.003000
O	      8.45268      8.61544     10.66228        -0.011153     -0.025278     -0.053639
