# total energy = -234.19357775 eV
 
CRYSTAL
PRIMVEC
-0.011727 6.507425 6.209592 
6.334089 -0.008080 6.205558 
4.203428 4.316116 0.014705 
PRIMCOORD
36 1
Li	      0.12108      6.46061      6.27285        -0.125605     -0.009656     -0.013350
Li	      2.12109      8.51028      6.30431         0.003144      0.049530      0.013569
Li	      6.25789      4.35318      2.08250         0.141304      0.219900      0.062829
Li	      4.15207      2.20751      2.03405        -0.249139     -0.147457      0.005990
Li	      2.19869      4.11628      2.05792        -0.023664      0.035198     -0.160982
Li	      2.13059      2.14828      3.99803         0.001909     -0.059155      0.008834
Li	      8.38461      6.57323     10.44370        -0.060351     -0.017113     -0.058156
Li	      8.26009      8.66914      8.34246         0.251569      0.123165     -0.017086
Li	      6.27181      6.71431      8.31354        -0.122026     -0.281708      0.001942
Sc	      6.30551      4.40714     10.31742         0.017472      0.149230     -0.164225
Sc	      4.10539      6.52592      6.35065         0.204983     -0.102491      0.533093
Ti	      6.41191      4.31620      6.24141         0.610451      0.325360     -0.034703
V	      8.40769      6.48767      6.26347        -0.165014     -0.634657      0.388740
Cr	      0.09862      2.12102      2.06481        -0.011939      0.019813      0.172438
Fe	      4.06065      4.33926      4.06320         0.212739      0.148584      0.167493
Co	      4.21579      6.41876     10.25012         0.174331      0.228365      0.025001
Co	      6.36304      8.60574     10.21341         0.212495     -0.013819     -0.896873
Cu	      6.18631      8.81313      6.33793        -0.083131      0.071074     -0.426048
O	      2.01696      2.17061      2.06591        -0.021866     -0.037784      0.005425
O	      4.17538      4.42756      2.17465         0.060994     -0.082855     -0.218146
O	      4.25547      2.30220      4.32149         0.354912      0.180609     -0.292930
O	      6.41940      4.24161      4.24979        -1.094244     -0.556826      0.201513
O	      6.26726      2.26644      6.23565         0.049596     -0.077571     -0.388635
O	      8.37472      4.47202      6.03940        -0.429606      0.400979      0.993346
O	      2.12337      4.35783      4.28001        -0.094743     -0.033042      0.089430
O	      4.21502      6.44199      4.13046         0.003493      0.019166     -0.105723
O	      4.39769      4.28528      6.14093        -0.009244     -0.007741      0.030449
O	      6.39529      6.27293      6.26533         0.045639     -0.040591     -0.020529
O	      6.41182      4.16487      8.17708        -0.012834     -0.080006     -0.086403
O	      8.51597      6.48850      8.06054         0.003762      0.178323     -0.033368
O	      2.13247      6.49285      6.22475        -0.150588     -0.022178      0.066672
O	      4.14691      8.54753      6.16950         0.020596      0.102160      0.114057
O	      4.21579      6.50026      8.38232        -0.102246      0.003575     -1.618862
O	      6.28882      8.66450      8.22785         0.002252     -0.047725      1.573765
O	      6.17609      6.47728     10.30425         1.211235      0.688405      0.114853
O	      8.43541      8.67384     10.33237        -0.826636     -0.691060     -0.033418
