# total energy = -235.11790609 eV
 
CRYSTAL
PRIMVEC
0.039189 6.232982 6.364277 
6.267017 0.023857 6.380101 
4.207281 4.195131 -0.013947 
PRIMCOORD
36 1
Li	      4.27181     10.39119      6.40210        -0.169285     -0.039726     -0.226753
Li	      8.35697      2.18593      6.35423         0.004101      0.130378     -0.224371
Li	      4.18526      8.37381      8.39161        -0.183161      0.022961     -0.078590
Li	      8.28100      4.24452      4.22882         0.202187     -0.179659      0.159174
Li	      6.43498      8.31004     10.65713         0.181402     -0.190887      0.137761
Li	      8.35776      4.15635      8.40719        -0.158503      0.017932      0.076976
Li	      6.33787      4.12118      6.42417         0.067088      0.043171      0.119570
Li	      2.09707      4.20282      6.38816        -0.028210     -0.165061     -0.280827
Li	      8.43164      8.34154      8.53934         0.161967     -0.125141      0.208298
Sc	      6.24100      4.30226     10.63129        -0.099902      0.066013     -0.012317
Sc	      4.23939      6.26613      6.46830         0.500247      0.243413     -0.912876
Ti	      8.45605      6.14025      6.36017        -0.047714     -0.757420      0.145687
V	      6.33308     10.29731      8.47597        -0.377836      0.250077     -0.312933
Cr	      6.26109      2.12452      8.45733        -0.164726      0.481472      0.358767
Fe	      4.21366      4.10052      4.26240        -0.827715      0.308443      0.312148
Co	      2.14782      2.08328      4.23196        -0.107075      0.394470      0.171723
Co	      8.36090      6.29597     10.66170         0.067059      0.224789     -0.025789
Ni	      6.32661      6.30099      8.48064         0.189220     -0.236269      0.253830
O	      1.99467      1.97266      2.19546         0.126335     -0.564979     -0.307518
O	      4.29891      4.24223      2.19454         0.823238     -0.169247     -0.314449
O	      4.18354      2.13052      4.38454        -0.011404      0.014271     -0.224512
O	      6.22522      4.21632      4.09985         0.358601     -0.217834     -0.893866
O	      6.15780      2.09386      6.49350         0.037052     -0.033412     -0.089088
O	      8.38899      4.29809      6.30849         0.020590      0.702229      0.155051
O	      2.16967      4.26706      4.20454         0.308474     -0.366394     -0.049792
O	      4.13014      6.24833      4.18038         0.476079     -0.300803     -0.008456
O	      4.22368      4.16241      6.22464         0.063570      0.034416      0.189078
O	      6.37373      6.29197      6.38451        -0.066966      0.030022      0.154741
O	      6.29644      4.15123      8.53627        -0.012190     -0.264300     -0.342588
O	      8.41646      6.30475      8.35273         0.115718      0.036984     -0.349936
O	      2.17215      6.25189      6.50179        -0.083483     -0.049018      1.495044
O	      4.25914      8.30300      6.27116         0.035605     -0.160331      0.645126
O	      4.14190      6.27043      8.49553        -0.945709     -0.033402      0.209363
O	      6.28810      8.51280      8.49037         0.067806      0.505499     -0.100563
O	      6.43568      6.31159     10.49810        -0.329402      0.167837     -0.015482
O	      8.42948      8.24599     10.62637        -0.193058      0.179504     -0.021633
