# total energy = -236.78462541 eV
 
CRYSTAL
PRIMVEC
0.047598 6.311857 6.300641 
6.377214 0.040981 6.307274 
4.283251 4.244320 -0.004437 
PRIMCOORD
36 1
Li	      4.36391      8.27677      8.37987         0.026263     -0.020029      0.006279
Li	      4.32972      6.28659     10.38887        -0.019057      0.002647     -0.003475
Li	      8.39609      4.29939      8.37905        -0.013294      0.035805      0.011295
Li	      8.47899      6.46304      6.36718        -0.001647     -0.002321      0.005429
Li	      6.37402      4.31732      6.40869        -0.000613      0.032128     -0.022814
Li	      6.39402      4.28756     10.40405         0.014272      0.015773     -0.005868
Li	      6.57767      8.37451      6.40367         0.018376     -0.015070      0.027045
Li	      4.37298      4.33773      8.29353         0.000790     -0.022633      0.003080
Li	      6.27743      6.22341      8.31117        -0.014133     -0.048164     -0.020755
Sc	      4.23986      4.16444      0.10297        -0.068179     -0.061674     -0.048055
Sc	      2.24382      2.18012      4.25648         0.096091     -0.006653      0.020433
Ti	      6.31001      2.21888      4.07045        -0.202420      0.215262     -0.458521
V	      8.50901      6.32998     10.39205         0.030366     -0.142009     -0.050674
Cr	      4.31910      6.31076      6.33437         0.081726     -0.067629     -0.098260
Fe	      8.51658      2.25810      6.31306        -0.024582     -0.092979      0.050112
Fe	      6.40885      2.30841      8.38200        -0.030594     -0.131260      0.050007
Co	      4.29807      4.22866      4.22263         0.060902     -0.027388      0.114127
Ni	      2.24221      6.31637      8.39506        -0.046542     -0.051284      0.025674
O	      2.06779      2.08991      2.09673         0.034501      0.095292      0.000080
O	      4.38913      4.35760      2.12950        -0.113547      0.017240      0.427351
O	      4.35540      2.07195      4.22858         0.074578      0.060022      0.010861
O	      6.44128      4.18634      4.18269        -0.156365     -0.076740      0.101624
O	      6.44251      2.10461      6.32120        -0.008901     -0.022191     -0.046674
O	      8.60457      4.17918      6.31619         0.025821      0.106220     -0.011632
O	      2.18366      4.29940      4.19418         0.206497      0.172418      0.029500
O	      4.25570      6.39338      4.21025        -0.013036     -0.053558      0.011101
O	      4.28954      4.32275      6.22833        -0.054212     -0.019793     -0.442523
O	      6.33531      6.37910      6.25056        -0.033604      0.022383     -0.039421
O	      6.39424      4.16585      8.42371        -0.007406      0.209947      0.006091
O	      8.63695      6.37585      8.60095        -0.048646      0.000845      0.043209
O	      2.22150      6.36012      6.19144         0.007554      0.045545     -0.118348
O	      4.19019      8.40627      6.31580         0.044130     -0.050284     -0.002952
O	      4.24857      6.30979      8.30143         0.141468      0.009853     -0.031359
O	      6.41835      8.48004      8.54177        -0.016250     -0.100257      0.421899
O	      6.56185      6.44557     10.55052         0.007690     -0.015396      0.033828
O	      8.38582      8.35457     10.59485         0.002002     -0.014069      0.002306
