# total energy = -238.54829522 eV
 
CRYSTAL
PRIMVEC
0.017270 6.240977 6.300447 
6.385986 -0.028606 6.345564 
4.223547 4.157213 0.014662 
PRIMCOORD
36 1
Li	      6.46906     10.34272      8.51572         0.080283     -0.004362      0.006307
Li	      8.43234      4.17347      4.25763        -0.026127     -0.022898      0.011873
Li	      6.39522      6.07779      4.38729         0.024932      0.005140     -0.033808
Li	      4.43521      4.12828      4.33335         0.018924     -0.024021      0.007572
Li	      4.16755      2.12520      6.22856        -0.009150      0.030260     -0.024531
Li	      6.22254      4.30182      6.17607        -0.000748     -0.055494      0.046219
Li	      2.10222      6.21448      4.25411         0.035205      0.023408      0.019229
Li	      4.36762      6.12571      6.31000        -0.069587      0.090417     -0.050277
Li	      4.24314      4.27033      8.27923        -0.009180      0.025398     -0.072295
Sc	      4.20786      2.00847      2.18119         0.073497     -0.204087      0.093464
Sc	      6.39773      2.12723      4.30394        -0.011595      0.280948     -0.114765
Ti	      4.09705      6.17440      2.19565        -0.101903      0.091752      0.238068
V	      2.15439      8.25322      6.25871         0.050743      0.052682      0.032310
Cr	      6.36411      6.20735      8.39778        -0.032197      0.070597     -0.196038
Fe	      2.06384      4.14066      2.15215        -0.013714      0.039658      0.023970
Fe	      2.29578      4.15125      6.19387        -0.155039      0.075799      0.014160
Co	      6.37287      4.16714     10.52487        -0.002007     -0.092931      0.105248
Co	      4.21867      4.15715      0.04037        -0.165983      0.257472     -0.244885
O	      2.04515      2.09226      2.04159        -0.090888     -0.010334      0.093630
O	      4.12764      4.25051      2.26743        -0.005875      0.222045     -0.144845
O	      4.33638      2.05645      4.16392         0.013171     -0.022157     -0.013441
O	      6.41092      4.08359      4.24455         0.029935     -0.078061     -0.068634
O	      6.42543      2.01638      6.44450         0.024371      0.403930      0.163964
O	      8.62581      4.00865      6.51441        -0.641767     -0.106616      0.071414
O	      1.92429      4.15514      4.18035        -0.092859      0.030253     -0.060344
O	      4.21386      6.39544      4.05024        -0.049347      0.063811     -0.258124
O	      4.15337      4.20012      6.26127         0.182883     -0.039945      0.012346
O	      6.38140      6.30656      6.40352         0.033558     -0.016381      0.081529
O	      6.41473      4.12432      8.54138        -0.075627     -0.024447      0.044105
O	      8.55090      6.14926      8.42150         0.126425      0.016312      0.045292
O	      1.98587      6.24097      6.34962         0.780093     -0.053041      0.028691
O	      4.26003      8.40280      6.18350         0.017019     -0.883218     -0.061883
O	      4.38125      6.26129      8.37122         0.017537      0.013244      0.082335
O	      6.34625      8.23589      8.40515        -0.001348     -0.065002      0.056734
O	      6.40864      6.13194     10.41849        -0.011121     -0.088330      0.139728
O	      8.60587      8.28910     10.65474         0.057489     -0.001800     -0.074315
