# total energy = -233.87780989 eV
 
CRYSTAL
PRIMVEC
0.033675 6.408713 6.470850 
6.150367 0.013808 6.491414 
4.112447 4.298330 -0.003109 
PRIMCOORD
36 1
Li	      4.06548      4.29310      0.18301         0.024041     -0.003963     -0.080488
Li	      2.10243      2.24911      0.15676         0.063882     -0.001445      0.023201
Li	      4.05922      2.37980      2.15285         0.046801      0.009464     -0.055830
Li	      4.16934      6.31185      2.12031        -0.006547      0.045869     -0.009764
Li	      2.24180      4.22957      1.98691        -0.088522      0.060273     -0.063153
Li	      4.13625      4.29925      4.07317        -0.000270      0.062312     -0.033849
Li	      8.23114      6.36131      6.53313        -0.006275     -0.032207      0.012729
Li	      4.15252      8.50349      4.36592        -0.019968     -0.030137      0.070863
Li	      4.10325      6.41513      6.40717         0.003108      0.044145     -0.076143
Sc	      2.21814      6.39194      4.31621         0.044620     -0.118675      0.016889
Sc	      6.12094      6.42124      8.59372        -0.061260     -0.107972      0.020239
Ti	      6.01995      2.19249      4.48027        -0.085262      0.011685      0.346069
V	      6.10931      8.60593      6.44987        -0.159614     -0.049054     -0.122802
Cr	      6.14918      4.29917      6.47799         0.176455      0.006629      0.165052
Fe	      2.03464      2.20949      4.17154         0.094103     -0.077374      0.442595
Fe	      8.23675      8.53897      8.63562         0.014145      0.039755      0.116219
Cu	      1.99319      0.13128      2.08760         0.071697      0.050484     -0.123352
Cu	      8.21198      4.25852      4.41643         0.130893      0.040183      0.098015
O	      4.19624      4.35073      2.11034        -0.053418      0.024392      0.019943
O	      2.09508      2.14795      2.28517         0.064726      0.101590     -0.459563
O	      4.16044      2.20428      4.31544         0.184076      0.310339     -0.052267
O	      6.13203      4.22783      4.48055        -0.026001     -0.038436     -0.026394
O	      6.14979      2.25996      6.33172        -0.035864      0.009816     -0.296965
O	      8.13704      4.27544      6.38052        -0.123277      0.031537      0.173002
O	      2.10643      4.24096      4.47851         0.025710     -0.034982     -0.083802
O	      4.21764      6.47317      4.33503        -0.069133     -0.080702     -0.053019
O	      4.03184      4.25477      6.64315         0.071147     -0.008962     -0.043827
O	      6.16958      6.40776      6.46785         0.005742     -0.043629     -0.013831
O	      6.11238      4.35206      8.50602         0.057170      0.009609      0.010958
O	      8.19261      6.49762      8.70434         0.002259     -0.083073     -0.066043
O	      2.11081      6.22473      6.37326        -0.014118      0.132777      0.025045
O	      4.33772      8.51272      6.50015        -0.030289      0.011219      0.070920
O	      4.03857      6.29871      8.82977        -0.043887     -0.013712     -0.068654
O	      6.19290      8.55156      8.58600        -0.078385     -0.097742      0.188455
O	      6.19447      6.60256     10.73065        -0.069937      0.052069     -0.012565
O	      8.13471      8.47915     10.70327        -0.108548     -0.232081     -0.057881
