# total energy = -92.19138457 eV
 
CRYSTAL
PRIMVEC
-2.029651 4.164841 -2.030985 
1.938051 4.072333 1.937435 
1.994356 0.047906 -5.963667 
PRIMCOORD
16 1
Li	      1.86411      6.04726     -3.93480         0.280821      0.273647     -0.271227
Li	      1.89275      4.06320     -5.84932         0.224183     -0.008301     -0.633221
Li	     -0.01320      2.03013     -1.97249        -0.164121     -0.154394      0.161864
Li	      1.90487      4.01759     -1.99821         0.045789      0.034874      0.630350
Mn	      3.80520      4.01758     -3.89601         2.446204      0.076794     -0.855547
Mn	     -0.03607      6.04661     -2.03686        -0.952114      1.485895      0.442485
Ni	      0.00136      4.06174     -3.96355        -1.027225     -0.582029     -0.384758
Ni	      1.87822      2.03183     -3.85824         0.313480     -1.318228     -0.392569
O	     -0.02681      4.14734     -5.93965        -0.445881     -0.157993     -1.182036
O	      1.78986      6.08837     -2.00447         1.188837      0.010710      0.152785
O	      1.97927      3.97573     -3.92840        -0.131132      0.686624      0.044114
O	      1.89219      3.83283      0.03397        -0.013503     -0.011058      0.850151
O	     -0.07259      6.00693     -3.86240        -0.015164      0.962932     -1.357315
O	     -0.06754      6.18466     -0.15225        -0.347123      0.462680      1.422719
O	     -0.12381      4.20037     -1.98826        -0.529705     -1.194757      0.686678
O	      0.05885      1.84659     -0.01900        -0.873346     -0.567396      0.685528
