# total energy = -234.67250574 eV
 
CRYSTAL
PRIMVEC
0.011725 6.401193 6.342139 
6.221765 0.025388 6.328241 
4.163029 4.273262 0.002057 
PRIMCOORD
36 1
Li	      6.24465      6.44304     12.57494        -0.003330      0.020516     -0.026725
Li	      6.21708      4.26142      2.13414        -0.000164      0.027420     -0.013134
Li	      4.24876      8.52319      8.42753        -0.044149      0.007518     -0.001675
Li	      6.19674      8.48069     10.51032         0.011142     -0.003244     -0.019108
Li	      2.05619      4.25642      2.20388        -0.005980     -0.013853      0.056231
Li	      2.10203      2.13982      4.18155         0.034420      0.020472     -0.040219
Li	      6.26473      4.25868      6.25788        -0.019694     -0.060524     -0.003413
Li	      1.94813      6.27372      4.28724        -0.023040      0.014328     -0.034813
Li	      6.21760      6.50626      8.55946         0.015038      0.032895     -0.022019
Sc	      4.22125      4.23518      4.20625         0.008543     -0.040629     -0.039062
Sc	      8.19632      8.53149      8.52130         0.078391     -0.044070      0.027841
Ti	      4.23614      6.47918      6.36377         0.063783     -0.016293      0.010407
V	      0.06857      2.12243      2.06843        -0.066636      0.078475      0.033954
Cr	      4.13417      0.05710      4.17598        -0.020999      0.018757     -0.011928
Fe	      8.27964      2.15395      6.32045        -0.039485      0.140058     -0.051884
Fe	      8.22308      6.24056      6.34869         0.090645      0.108291      0.043651
Ni	      0.09018      4.31834      4.22233        -0.023838     -0.028466     -0.055987
Ni	      2.06233      4.33800      6.34987         0.005496      0.037312      0.006678
O	      2.00734      2.19850      1.95416         0.046516     -0.025041      0.132218
O	      4.14481      4.53205      2.17528         0.004250     -0.120195     -0.021112
O	      4.15611      2.11147      4.35569         0.008122     -0.001795     -0.082636
O	      6.27441      4.28891      4.19724        -0.000799      0.014519      0.008049
O	      6.22764      2.14499      6.45437        -0.060674     -0.008192     -0.065017
O	      8.29070      4.29621      6.20305         0.018507     -0.175457     -0.007049
O	      2.11792      4.28513      4.30787         0.125012     -0.024503     -0.083770
O	      4.22305      6.39200      4.30699        -0.023912     -0.061078      0.075499
O	      4.17612      4.40345      6.35788         0.062544      0.054740     -0.004566
O	      6.21182      6.44641      6.37798        -0.190467      0.001470      0.009387
O	      6.19276      4.03140      8.52707         0.015621      0.027522     -0.106274
O	      8.36628      6.44549      8.30242        -0.012744      0.036872      0.096078
O	      2.25470      6.50915      6.30756         0.080452     -0.056182      0.024279
O	      4.13966      8.43692      6.33557        -0.042867     -0.097608      0.097012
O	      4.18910      6.37693      8.36349        -0.020673      0.030743     -0.045999
O	      6.22406      8.57963      8.38216         0.031304      0.003466      0.129186
O	      6.14480      6.37961     10.53655        -0.014109      0.120689      0.012891
O	      8.32215      8.68419     10.61321        -0.086224     -0.018933     -0.026970
