# total energy = -241.13284944 eV
 
CRYSTAL
PRIMVEC
0.011496 6.421098 6.379682 
6.200004 0.007553 6.383606 
4.141686 4.291637 -0.003221 
PRIMCOORD
36 1
Li	      4.20590     10.61992      6.37381         0.020014     -0.060432      0.056452
Li	      6.23877      8.52141     10.64644        -0.012512      0.024008     -0.015381
Li	      0.04626      2.21532      2.18898         0.005720      0.027494      0.018445
Li	      2.00140      4.16665      2.22838         0.032872     -0.095665      0.043447
Li	      6.12029      6.52843      4.28860         0.011436     -0.006109     -0.000496
Li	      4.22470      8.48891      4.28851        -0.000846     -0.012429      0.020321
Li	      6.10259      8.54828      6.33629        -0.013093     -0.034084     -0.018800
Li	      4.20473      6.53277      6.28310         0.004617      0.027429     -0.036917
Li	      6.19767      6.41647      8.48974         0.022957     -0.003485     -0.046173
Sc	      4.14460      4.36562      4.20831        -0.081139     -0.093095     -0.056071
Sc	      8.28112      6.37123      6.42091        -0.035457      0.062487     -0.018013
Ti	      8.29131      8.59212      8.56161         0.023918     -0.077310      0.084034
V	      4.23030      6.43907     10.62438        -0.008359      0.027442     -0.159108
Cr	      6.21273      4.31063      6.40052        -0.110718      0.153182     -0.019141
Fe	      2.06578      2.07329      0.06826         0.048883      0.098820     -0.037500
Fe	      4.21312      8.59391      8.42326        -0.080166     -0.050062      0.149661
Fe	      1.98900      6.32783      4.26973         0.050900      0.095072      0.049535
Co	      2.06561      6.45626      8.44847        -0.021326     -0.033832      0.093654
O	      2.14979      2.10669      2.07195        -0.000158     -0.088057     -0.074003
O	      4.15968      4.15477      2.16617        -0.019333      0.136289     -0.040995
O	      4.17260      2.10506      4.24236         0.067390      0.104788     -0.010026
O	      6.28468      4.28961      4.34758        -0.025284     -0.004642      0.030373
O	      6.26339      2.27284      6.42412        -0.038237      0.007882     -0.065950
O	      8.23672      4.26248      6.33823         0.068461     -0.057025     -0.095407
O	      2.07592      4.37591      4.24043         0.000458     -0.157887      0.040021
O	      4.03156      6.37081      4.20844         0.040829      0.060094      0.044957
O	      4.18728      4.22230      6.44791         0.047668     -0.014092      0.027995
O	      6.26133      6.31739      6.37395        -0.002226     -0.061461      0.016605
O	      6.05734      4.32176      8.41423        -0.075315      0.026632     -0.062878
O	      8.24493      6.63879      8.53924        -0.026956      0.119841      0.002845
O	      2.04675      6.54978      6.26297        -0.045977     -0.064925      0.053496
O	      4.07428      8.55569      6.47731         0.058450     -0.005182     -0.121299
O	      4.13673      6.39729      8.57123         0.067937      0.024182      0.182620
O	      6.27673      8.65141      8.45234         0.114595      0.009654     -0.008832
O	      6.19885      6.43632     10.62548        -0.077895      0.053902      0.028821
O	      8.29843      8.62517     10.53170        -0.012109     -0.139424     -0.056292
