# total energy = -237.54240990 eV
 
CRYSTAL
PRIMVEC
-0.016158 6.428931 6.251939 
6.406971 -0.009521 6.245102 
4.268748 4.279029 -0.003379 
PRIMCOORD
36 1
Li	      6.52554     10.57641      8.39069        -0.063220      0.054871     -0.043194
Li	      4.31142      2.05398      2.20641        -0.124056      0.085402      0.066859
Li	      4.09469      0.05377      4.04357        -0.075267      0.001421      0.072880
Li	      6.31317      2.30668      4.04879        -0.042232      0.075424      0.028391
Li	      6.46155      6.32670      4.20420         0.030881     -0.013645     -0.003134
Li	      6.34495      4.37432      6.13566        -0.034190      0.072193      0.006268
Li	      2.15940      6.40029      4.19462        -0.042351     -0.001098      0.010007
Li	      2.17156      4.33569      6.32049         0.111160     -0.018046     -0.003580
Li	      4.25211      6.35034      6.31235        -0.021689     -0.077724     -0.014012
Sc	      8.47402      8.50994     12.42796         0.101008      0.033423     -0.126530
Sc	      6.29308      6.53825      8.32576         0.212421     -0.243140      0.136679
Ti	      4.35262      8.49172      4.22721        -0.057776      0.267811     -0.272319
V	      0.04113      6.39491      6.20686        -0.195108     -0.109309      0.529692
Cr	      2.14262      4.27096      2.09898         0.077891     -0.020346     -0.045212
Fe	      4.26279      6.43056      2.10610        -0.019490     -0.059979      0.116320
Fe	      4.43644      4.25654      4.23706        -0.260301      0.153715     -0.109564
Fe	      4.17731      2.16316      6.17100        -0.001107      0.116588      0.019483
Cu	      4.12795      4.42935      8.31755        -0.057607      0.005260      0.062640
O	      2.02001      2.27253      2.01710         0.028193      0.003361     -0.048247
O	      4.15992      4.37265      2.09282        -0.042817     -0.007132      0.235638
O	      4.25953      2.27345      4.23565         0.014856     -0.123622     -0.121255
O	      6.29534      4.29968      4.15906         0.271780      0.007076     -0.047607
O	      6.38358      2.06421      6.29503         0.061879     -0.531986     -0.152852
O	      8.65759      4.28291      6.29996         0.043046     -0.059302     -0.016909
O	      2.03679      4.29002      4.10209        -0.070543     -0.068853      0.070093
O	      4.25074      6.46855      4.11392         0.019992      0.063567      0.062318
O	      4.25747      4.21583      6.26763         0.064493     -0.076643     -0.409394
O	      6.52586      6.35632      6.30002        -0.145238      0.055427      0.065856
O	      6.52003      4.21429      8.42011         0.013541      0.010143     -0.010521
O	      8.60624      6.30882      8.26215        -0.016433      0.030908     -0.016846
O	      1.98574      6.48050      6.26256         0.020386      0.189187      0.000542
O	      4.20708      8.56571      6.12314         0.010685      0.471802      0.206535
O	      4.30021      6.44345      8.31146        -0.118852      0.011697      0.005638
O	      6.36694      8.50596      8.36180        -0.049149      0.136288     -0.069399
O	      6.43174      6.22356     10.46730         0.096688     -0.290238     -0.732131
O	      8.71664      8.54942     10.33034         0.258526     -0.144505      0.546865
