# total energy = -238.13726621 eV
 
CRYSTAL
PRIMVEC
-0.017049 6.253753 6.307639 
6.426093 -0.005123 6.296281 
4.288089 4.165793 -0.007645 
PRIMCOORD
36 1
Li	      8.54489      2.14301      6.26165        -0.057152     -0.017116     -0.052585
Li	      4.19256      2.12233      2.20530        -0.034793     -0.031655     -0.015849
Li	      4.24677      0.15830      4.28308        -0.064691      0.052356     -0.056096
Li	      6.29578      2.07476      4.30187        -0.021401      0.008175     -0.025573
Li	      2.18113      4.08718      2.09703        -0.051249     -0.005749      0.011169
Li	      2.31528      2.11841      4.19653        -0.049996      0.046060      0.011132
Li	      4.27818      2.00864      6.11989        -0.017944     -0.016602      0.081390
Li	      4.28365      8.35336      4.25617        -0.018458     -0.025658     -0.020094
Li	      6.39769      8.27547      6.25502         0.028605     -0.003063     -0.002771
Sc	      6.47106      4.16274      2.17754         0.006381     -0.055039      0.023397
Sc	      6.49161      2.13551      8.34234        -0.011274      0.050339      0.020781
Ti	      2.08169      6.23729      4.30716         0.007635     -0.009205      0.042087
V	      4.31070      6.36705      6.26721         0.091738      0.022075      0.015608
Cr	      4.26515      4.08867      4.22524        -0.002127     -0.022417      0.008432
Fe	     10.46121      4.07354      6.27511         0.083511      0.004289     -0.012124
Fe	      8.55959      8.31911      8.42921         0.050419      0.055838     -0.126842
Fe	      6.43195      6.28618      8.37313        -0.034320     -0.035130      0.070411
Ni	      6.47548      4.15906      6.21031         0.102451     -0.052196      0.004854
O	      2.05961      2.02683      2.12418         0.035345     -0.003742     -0.023652
O	      4.34304      4.16852      2.08222         0.001438      0.002453      0.043925
O	      4.25877      2.16439      4.19167         0.029513      0.006778     -0.008101
O	      6.32358      4.13603      4.19475         0.010335      0.035908     -0.132926
O	      6.40357      1.94737      6.32924        -0.002029     -0.029208     -0.029803
O	      8.58596      4.13218      6.26405        -0.091754     -0.009890      0.001916
O	      2.24800      4.30392      4.18047         0.001553      0.114462      0.013553
O	      4.15677      6.20119      4.18889        -0.005224     -0.008070      0.006552
O	      4.34036      4.29133      6.26954        -0.098459     -0.011133      0.013782
O	      6.31178      6.24971      6.39389         0.016361      0.090166     -0.125089
O	      6.33987      4.22467      8.32268         0.030586     -0.041643      0.139156
O	      8.51126      6.28534      8.47390         0.053482     -0.059503      0.039571
O	      2.22170      6.26290      6.25424        -0.073296     -0.009370     -0.133702
O	      4.28287      8.36296      6.29478         0.025462     -0.060884      0.008584
O	      4.32565      6.20964      8.39491        -0.026833      0.044630      0.017569
O	      6.56318      8.27744      8.36978        -0.046248      0.106823      0.013016
O	      6.56057      6.20273     10.51158         0.110394      0.012572     -0.009453
O	      8.62264      8.16347     10.38166         0.022044     -0.145650      0.187776
