# total energy = -241.67946318 eV
 
CRYSTAL
PRIMVEC
-0.017220 6.413646 6.339010 
6.377403 0.028781 6.293101 
4.278689 4.272267 -0.007820 
PRIMCOORD
36 1
Li	      2.23475      8.48939      6.35060         0.067816     -0.012609     -0.047460
Li	      4.19209      2.17873      2.02001         0.007438     -0.040363      0.014326
Li	      2.12647      4.18285      2.21751        -0.054832     -0.066474     -0.010012
Li	      6.27474      6.55504      4.24319        -0.010021     -0.025000      0.027846
Li	      6.35292      4.34992      6.29870        -0.035202      0.098733     -0.005049
Li	      4.42366      8.41432      4.32469         0.033828     -0.017061     -0.061694
Li	      2.22607      6.30020      4.32484         0.005425     -0.018115      0.018703
Li	      1.98861      4.27491      6.17836         0.001046     -0.038484      0.033376
Li	      4.26390      6.57151      6.16018         0.043404      0.035878      0.018815
Sc	      4.27251      4.29067      8.30746        -0.023843      0.049172     -0.035026
Sc	      6.41931      6.38945      8.35660        -0.034605      0.028776     -0.035663
Ti	      8.46810      4.30791      4.32032        -0.027983     -0.112803      0.059327
V	      0.03801      2.15988      2.11778         0.225717     -0.302791      0.139890
Cr	      6.40264      2.17147      4.24411         0.029009     -0.052797     -0.022720
Fe	      4.32734     10.50331      6.36032        -0.017683      0.173451      0.038573
Fe	      2.12587      6.51503      8.34341        -0.021770     -0.062945      0.076075
Fe	      4.06757      4.34806      4.29117         0.226213     -0.008383     -0.149366
Fe	      8.44079      6.44351      6.23371         0.038828      0.015395      0.107271
O	      2.01423      2.04896      2.09888        -0.077700      0.257948     -0.015489
O	      4.37719      4.31476      2.11069        -0.172768     -0.096770      0.001115
O	      4.36682      2.09234      4.13494         0.024654     -0.017048     -0.009045
O	      6.49613      4.21038      4.15361         0.055410      0.039852      0.023261
O	      6.28324      2.05860      6.30319         0.049724      0.061934      0.003228
O	      8.58845      4.26414      6.17780        -0.042708     -0.015769     -0.148530
O	      2.21768      4.25623      4.19707        -0.168189      0.010799     -0.016707
O	      4.25338      6.32433      4.09754        -0.019161      0.079267     -0.063026
O	      4.28780      4.32969      6.25164         0.063676      0.004747      0.033969
O	      6.44659      6.42705      6.37319        -0.164483      0.004120      0.003804
O	      6.34464      4.30867      8.43312         0.017268      0.029741     -0.015539
O	      8.54312      6.49217      8.44027         0.037745      0.001725      0.050430
O	      2.04087      6.40730      6.41248         0.015729      0.012039     -0.121585
O	      4.25655      8.63565      6.31617        -0.029923     -0.156401     -0.031275
O	      4.23898      6.41397      8.53130         0.021850     -0.005088      0.060114
O	      6.45143      8.56809      8.56224         0.035223      0.033353      0.034900
O	      6.24441      6.55345     10.56473        -0.070609     -0.008497     -0.008868
O	      8.40996      8.76239     10.50222        -0.028523      0.120467      0.052031
