# total energy = -233.10699268 eV
 
CRYSTAL
PRIMVEC
-0.003123 6.471225 6.200030 
6.364981 0.025158 6.172081 
4.250060 4.302441 0.009656 
PRIMCOORD
36 1
Li	      2.15259      8.58967      6.20530        -0.048054     -0.021698     -0.025512
Li	      4.25324      8.58992      8.27027        -0.029169     -0.031677      0.005576
Li	      4.32243      6.48169     10.26170         0.000990     -0.019349      0.038178
Li	      6.31356      8.55024     10.25070        -0.040447     -0.020784      0.035110
Li	      4.32302      6.42789      2.12164        -0.026966      0.046643     -0.042598
Li	      2.15909      4.22343      2.08809         0.007277     -0.061100     -0.033201
Li	      8.47129      6.54426     10.31123        -0.028632      0.049186      0.013132
Li	      6.23519      8.76209      6.26214         0.034908      0.020984      0.021334
Li	      6.32355      6.60046      8.28066         0.028692     -0.002205     -0.026491
Sc	      8.51945      6.38710      6.23634         0.066938     -0.049753      0.014516
Sc	      8.41025      8.63374      8.29914         0.004770     -0.037721     -0.032788
Ti	      6.38755      4.45718     10.36608        -0.086003      0.322551     -0.214847
V	      6.46792      4.26113      6.24073         0.096521      0.061188     -0.012713
Cr	      2.09879      0.03468      2.02955        -0.027713      0.072616      0.341048
Cr	      4.17222      4.33657      4.07899         0.074051      0.014084      0.010837
Cu	      4.26482      4.24409      0.08523        -0.277593     -0.001254     -0.061649
Cu	      2.12041      2.16523      4.05364         0.064754     -0.026414      0.106763
Cu	      4.19786      6.50634      6.20095        -0.089533     -0.031726     -0.037932
O	      1.96347      6.50442      6.27468         0.293901     -0.027257     -0.231395
O	      2.11303      2.05886      2.10880         0.015735     -0.048206     -0.148795
O	      4.30830      4.37679      2.08724        -0.023565     -0.084840     -0.028960
O	      4.13908      2.31844      4.11584         0.187949      0.014007     -0.040244
O	      6.24228      4.41857      4.13649         0.013272     -0.124307     -0.087310
O	      6.34786      2.45668      6.07184         0.086941     -0.136600     -0.002993
O	      8.44765      4.33681      6.16826        -0.006263      0.039119      0.045731
O	      2.10910      4.19579      4.12467        -0.064056      0.200123      0.043720
O	      4.32231      6.43296      4.21267        -0.181805      0.013297     -0.096055
O	      4.34978      4.31284      6.12661        -0.042280     -0.056082      0.043215
O	      6.44462      6.18262      6.14276        -0.087694      0.153317      0.030858
O	      6.36886      4.34123      8.22837         0.010234     -0.043725      0.139185
O	      8.46100      6.58293      8.21517         0.033949      0.047310      0.073362
O	      4.29021      8.47504      6.06620        -0.035170      0.046488      0.154782
O	      4.14573      6.46045      8.17756        -0.004731      0.041507      0.111225
O	      6.39005      8.74124      8.29265        -0.044792      0.002957     -0.025186
O	      6.40180      6.34138     10.41063        -0.018647     -0.299031     -0.137551
O	      8.73307      8.64339     10.30175         0.142231     -0.021647      0.057648
