# total energy = -253.41416699 eV
 
CRYSTAL
PRIMVEC
0.023581 6.390753 6.277477 
6.250236 0.007346 6.293823 
4.191035 4.295250 -0.019051 
PRIMCOORD
36 1
Li	      6.32483      6.46984     12.54944         0.025007      0.068820     -0.006053
Li	      8.24277      2.15628      6.29720        -0.078528     -0.009885     -0.041191
Li	      2.08730      6.39960      8.34335        -0.029822      0.010789     -0.046401
Li	      8.32936      4.29660      4.19708        -0.015174     -0.055609      0.044728
Li	      6.33023      8.49407     10.53530         0.005320     -0.030236      0.070152
Li	      8.34265      4.24894      8.31844        -0.021948     -0.029347     -0.052922
Li	      6.33760      4.22312      6.29009         0.030283     -0.099720      0.045970
Li	      2.09938      4.30547      6.31501        -0.044820      0.066294      0.001149
Li	      6.26990      6.42271      8.39513        -0.020815     -0.005140      0.048452
Sc	      6.31591      4.36151     10.48566        -0.010259      0.158599     -0.042086
Sc	      4.23610      6.40451      6.29161         0.007923      0.047765      0.015828
Ti	      4.10139      2.20877      2.09039        -0.154334      0.109281     -0.049667
Ti	      4.30150      4.19139      4.16170         0.460279     -0.044512     -0.067139
Ti	      8.34809      6.26220      6.26328         0.089752     -0.656770      0.006231
Ti	      8.23948      8.59623      8.36918        -0.152608      0.021299      0.223573
Cr	      8.30355      6.43602     10.47780        -0.043240      0.074098      0.013931
Co	      0.07913      2.12750      2.02277         0.056235      0.003371     -0.107236
Cu	      6.35778      6.35784      4.19794         0.139733     -0.095826      0.038879
O	      2.22632      2.15910      2.05037         0.239047     -0.023335      0.038417
O	      4.20952      4.19300      2.15624        -0.009050     -0.174159      0.112633
O	      4.29089      2.17158      4.19747         0.129661      0.091884     -0.039094
O	      6.12874      4.26458      4.19923        -0.478941     -0.031884      0.000403
O	      6.10697      2.14442      6.33610        -0.227867     -0.027627      0.023418
O	      8.33071      4.43512      6.27772         0.023004      0.613308     -0.000233
O	      2.15450      4.41910      4.13985         0.055248      0.063475     -0.000009
O	      4.09428      6.36845      4.14645        -0.173879      0.002140     -0.020328
O	      4.16607      4.26713      6.30696        -0.032508     -0.056583      0.014441
O	      6.37504      6.44787      6.30927         0.072746      0.026972      0.014521
O	      6.10496      4.21512      8.43555        -0.161451      0.089079     -0.001331
O	      8.33171      6.55379      8.32493        -0.012243      0.059938      0.000709
O	      2.17119      6.45819      6.14813         0.049654     -0.039253     -0.041474
O	      4.24835      8.49848      6.35700         0.001194      0.008596      0.067761
O	      4.17085      6.36106      8.36738        -0.002698     -0.018477     -0.033059
O	      6.32423      8.57134      8.36133         0.194931     -0.014626      0.001570
O	      6.33077      6.34857     10.47403         0.038831     -0.038050     -0.019029
O	      8.36024      8.50785     10.34827         0.051338     -0.064669     -0.215515
