# total energy = -255.64795862 eV
 
CRYSTAL
PRIMVEC
-0.004611 6.387229 6.385951 
6.393711 -0.026561 6.408230 
4.246396 4.256645 -0.001528 
PRIMCOORD
36 1
Li	      4.19362      4.23837      0.04456         0.001695     -0.011537      0.034226
Li	      8.39684      2.28041      6.45366        -0.078244      0.006450      0.063411
Li	      4.15905      2.22039      2.20194        -0.010023     -0.022540      0.000797
Li	      4.30354      6.38442      2.29492         0.019646      0.001664      0.028802
Li	      2.17999      4.12968      2.11226         0.015234     -0.055734     -0.069224
Li	      2.07433      2.18379      4.11756         0.030435     -0.005874      0.009214
Li	      4.18704      4.29525      4.14051        -0.012032     -0.011058     -0.008350
Li	      4.29509      8.39956      4.24741         0.030618     -0.009671      0.026878
Li	      8.60213      6.34318     10.54285         0.015903     -0.036432     -0.033856
Sc	      4.35450      2.00415      6.35078         0.028079     -0.022085     -0.008598
Sc	      4.24312      6.38739      6.21607        -0.013261      0.032280      0.065433
Ti	      6.18649      4.39718      2.17864        -0.452608      0.344236      0.008582
Ti	      2.02673      4.29989      6.23154        -0.215227      0.047489     -0.300419
Ti	      4.37842      4.25164      8.60012         0.070383     -0.008051      0.020472
Ti	      6.37098      6.26581      8.61268         0.003817     -0.051883      0.057679
Cr	      6.37704      8.50576     10.63832        -0.015741      0.026520     -0.035487
Co	      8.51261      4.23269      4.33694        -0.006178      0.022711      0.008013
Co	      6.34736      4.26344      6.48471         0.018882      0.032791      0.073635
O	      2.14505      1.96062      2.13003        -0.047204     -0.360668      0.023535
O	      4.37059      4.25643      2.13576         0.455015      0.034874      0.019088
O	      4.35596      2.10586      4.29017         0.031065     -0.064931     -0.005955
O	      6.41807      4.15443      4.11718         0.049470      0.024580     -0.139988
O	      6.38049      2.09853      6.24851        -0.024131     -0.007184     -0.058162
O	      8.52407      4.24480      6.42103         0.003837      0.062802     -0.094032
O	      2.14741      4.26379      4.43257        -0.023359     -0.008287      0.382224
O	      4.24736      6.36733      4.30124        -0.019507      0.001617     -0.063654
O	      4.12938      4.24439      6.52748        -0.101417      0.020751      0.053793
O	      6.37196      6.51540      6.52019        -0.014664      0.131159      0.061894
O	      6.38726      4.27158      8.64521        -0.095829      0.067878      0.065481
O	      8.40203      6.47959      8.48105        -0.016588      0.014606      0.037845
O	      2.16116      6.22552      6.55547         0.009341     -0.128468      0.027810
O	      4.40210      8.46861      6.39532         0.255722     -0.005363     -0.054162
O	      4.29439      6.28397      8.48168         0.058181     -0.083718      0.057605
O	      6.46047      8.49537      8.56097         0.047386     -0.001751      0.001204
O	      6.36461      6.47214     10.51637        -0.004415     -0.024183     -0.162899
O	      8.42638      8.50067     10.52118         0.005721      0.047010     -0.092835
