# total energy = -92.55548795 eV
 
CRYSTAL
PRIMVEC
-2.040059 4.186200 -2.041400 
1.947990 4.093217 1.947370 
2.004584 0.048152 -5.994250 
PRIMCOORD
16 1
Li	      1.88328      6.10945     -3.97526         0.215607      0.211640     -0.206137
Li	      1.91221      4.10498     -5.90946         0.178707     -0.007977     -0.496170
Li	     -0.01333      2.05100     -1.99277        -0.129158     -0.121733      0.135671
Li	      1.92445      4.05890     -2.01876         0.028230      0.028009      0.498455
Mn	      3.84432      4.05889     -3.93608         1.897270      0.057384     -0.696189
Mn	     -0.03644      6.10879     -2.05781        -0.712001      1.145622      0.326874
Ni	      0.00137      4.10351     -4.00431        -0.782493     -0.429524     -0.304187
Ni	      1.89754      2.05273     -3.89791         0.235184     -1.013248     -0.307678
O	     -0.02708      4.18999     -6.00072        -0.349178     -0.150866     -0.956859
O	      1.80826      6.15097     -2.02508         0.860058     -0.028188      0.119130
O	      1.99962      4.01661     -3.96880        -0.047395      0.554822      0.036945
O	      1.91165      3.87224      0.03432        -0.036523     -0.019314      0.691831
O	     -0.07333      6.06870     -3.90212         0.001189      0.763400     -0.987878
O	     -0.06824      6.24826     -0.15382        -0.257707      0.367618      1.078004
O	     -0.12509      4.24357     -2.00871        -0.430133     -0.902495      0.548456
O	      0.05945      1.86557     -0.01919        -0.671656     -0.455150      0.519733
