# total energy = -256.41320811 eV
 
CRYSTAL
PRIMVEC
0.004069 6.373223 6.204915 
6.337188 0.003231 6.205944 
4.236509 4.261170 -0.010081 
PRIMCOORD
36 1
Li	      4.24670     10.51516      6.19382         0.055335     -0.061850      0.015426
Li	      2.20399      8.52592      6.18993        -0.002785      0.020090      0.040139
Li	      6.35597     10.55499      8.27782        -0.018077     -0.120653     -0.040429
Li	      6.40128      6.36806      4.21050         0.012822      0.045394     -0.015497
Li	      8.33205      6.45789      6.17213        -0.071480      0.048523      0.055028
Li	      6.31954      4.34281      6.16908         0.028156     -0.001777      0.055640
Li	     10.55943      8.56539     10.38848         0.041026      0.032383     -0.059579
Li	      4.18109      4.26254      8.21220        -0.060252     -0.026623     -0.033253
Li	      6.38460      6.36764      8.20901         0.008050      0.029927     -0.005148
Sc	      6.36383      2.12863      8.15223         0.092593      0.088956     -0.022266
Sc	      4.31804      6.41522      6.26501        -0.079920      0.017851      0.024512
Ti	      6.40260      8.47994     10.39210        -0.076645     -0.030318     -0.087738
Ti	      8.32839      6.47557     10.38935        -0.014097     -0.169765      0.043806
Ti	      8.44610      4.24199      4.13487         0.089606     -0.017459      0.019363
Ti	      8.38230      4.26689      8.14117        -0.259487     -0.054064      0.027049
Cr	      4.24475      4.23092      4.15734        -0.091822     -0.004743      0.016564
Fe	      4.25000      8.47754      8.25176        -0.041264      0.025415      0.033801
Co	      6.35917      8.45898      6.24427        -0.180141      0.219866     -0.241483
O	      2.12560      2.29685      2.06592        -0.087258      0.083491     -0.034009
O	      4.15678      4.29920      2.10426         0.018521      0.045961      0.003462
O	      4.27435      2.13371      4.18656         0.001739     -0.010433      0.068970
O	      6.35050      4.19856      4.13872        -0.029945      0.008097      0.038455
O	      6.36794      2.10792      6.11789         0.030797      0.010466     -0.067447
O	      8.47140      4.27262      6.19692         0.003577      0.004509      0.013568
O	      2.21775      4.36746      4.02116        -0.025170      0.013472     -0.087810
O	      4.12934      6.27083      4.11232         0.033777      0.027820      0.038624
O	      4.20942      4.28895      6.14540        -0.399042     -0.136131      0.033689
O	      6.30916      6.41872      6.20163         0.117935      0.331918      0.057136
O	      6.50519      4.20424      8.27288         0.194955      0.025666     -0.058514
O	      8.48554      6.30453      8.34401         0.027219     -0.019660     -0.040039
O	      2.12546      6.36084      6.07961         0.034396     -0.299085      0.045671
O	      4.26612      8.47371      6.17037         0.477887     -0.009029     -0.135301
O	      4.19788      6.32456      8.40408        -0.026334     -0.043453      0.056786
O	      6.30656      8.50117      8.41412         0.163085     -0.051184      0.194758
O	      6.29843      6.39265     10.34731         0.042984     -0.007170      0.011964
O	      8.45915      8.52722     10.33032        -0.010741     -0.016407      0.034099
