# total energy = -255.23343083 eV
 
CRYSTAL
PRIMVEC
0.054194 6.315307 6.521458 
6.306180 0.008672 6.568900 
4.180321 4.217458 0.030101 
PRIMCOORD
36 1
Li	      4.23007     10.42290      6.48912         0.003903      0.041294     -0.038468
Li	      8.48860      8.50220     12.99476        -0.079308      0.013905     -0.031315
Li	      8.39027      4.18160      4.53625         0.020919     -0.060815      0.090508
Li	      4.19381      6.32095      2.21527        -0.025471      0.039104      0.008250
Li	      4.18060      4.25873      4.33701        -0.044604      0.046155     -0.007283
Li	      6.37742      4.17752      6.52556         0.005182      0.003697      0.034943
Li	      4.20198      8.46277      4.55644        -0.005817      0.017181     -0.038559
Li	      2.18222      6.29603      4.48513         0.013831     -0.022907      0.023462
Li	      2.02831      4.26039      6.40447         0.061411     -0.001253     -0.105753
Sc	      8.41575      4.23623      8.74128        -0.184293      0.114490      0.000160
Sc	      4.21436      2.13375      6.50687         0.029429      0.006750      0.031027
Ti	      6.17298      4.24666      2.14067        -0.003377      0.034205     -0.235274
Ti	      6.38586      8.26425     10.94178         0.245986     -0.503861      0.338537
Ti	      6.18558      6.32363      4.39895        -0.201162      0.249512      0.237736
Ti	      4.36882      4.22234      8.76030         0.283130     -0.230955      0.135642
Cr	      4.21662      6.33819      6.55951         0.065683     -0.282377     -0.291616
Fe	      4.29517      8.41816      8.66151        -0.187545      0.133269     -0.141691
Cu	      6.36496      6.19259      8.89998         0.116489     -0.222499      0.217271
O	      2.07824      2.08580      2.31372        -0.183108     -0.205048     -0.007730
O	      4.22026      4.28098      2.16698         0.314167     -0.077109      0.013705
O	      4.24883      2.11497      4.39155        -0.002613     -0.026450     -0.271034
O	      6.31565      4.33044      4.19405        -0.005059     -0.067168     -0.053777
O	      6.29262      2.20762      6.31071        -0.068071      0.025871     -0.194234
O	      8.38759      4.30366      6.69677         0.014095     -0.013046     -0.052920
O	      2.13636      4.05645      4.27528         0.020989     -0.162758     -0.014068
O	      4.27488      6.28132      4.52496         0.131845      0.000073      0.089584
O	      4.19258      4.24757      6.76560        -0.006268      0.107833     -0.015227
O	      6.26953      6.30066      6.35506        -0.111234      0.014647     -0.044696
O	      6.26554      4.13315      8.77798        -0.192349      0.022276     -0.047466
O	      8.46815      6.41572      8.67969        -0.006766      0.084528     -0.017341
O	      2.20500      6.32301      6.70192        -0.016928     -0.017385      0.222100
O	      4.21330      8.31620      6.59174         0.075332      0.062264      0.256619
O	      4.17476      6.25245      8.59622        -0.119648      0.112985     -0.006088
O	      6.37481      8.58353      8.91174         0.159238      0.267367     -0.056007
O	      6.38964      6.42030     10.99196        -0.082159      0.418996     -0.013778
O	      8.34986      8.46599     10.76518        -0.035850      0.077230     -0.015220
