# total energy = -254.03735586 eV
 
CRYSTAL
PRIMVEC
0.018192 6.336392 6.371118 
6.267922 0.022180 6.367247 
4.185757 4.228857 0.007495 
PRIMCOORD
36 1
Li	      4.21836     10.47400      6.40808         0.027685     -0.099804      0.004938
Li	      4.20037      8.46069      8.41114         0.016183      0.053972     -0.060907
Li	      8.39648     10.54060     10.62176        -0.006938     -0.029352      0.035696
Li	     10.40676      6.38000      8.53472        -0.054102     -0.006249      0.036233
Li	      8.36411      4.28693      8.46549        -0.018788      0.052161     -0.001248
Li	      8.39934      6.35382     10.57171        -0.029500     -0.001838     -0.089580
Li	      6.22434      8.51604      6.39602        -0.083415      0.053433     -0.021514
Li	      4.18255      6.36613      6.39153         0.013001      0.035345     -0.028147
Li	      8.40948      8.45126      8.51785        -0.020721     -0.052419      0.018999
Sc	      2.09117      2.15056      4.19773        -0.003157      0.036603     -0.034864
Sc	      8.40989      6.30082      6.50378        -0.031150     -0.032942      0.095299
Ti	      2.22275      6.34427      8.32088         0.161168      0.067918     -0.485641
Ti	      6.37214      8.33954     10.56399        -0.009569     -0.096578      0.039932
Ti	      4.10929      4.30713      4.19600        -0.052017      0.016446     -0.157870
Ti	     10.43007      8.47258     10.63002         0.054977     -0.073856      0.238021
Cr	      6.28690      4.23059      6.44716         0.037456      0.004791      0.074626
Fe	      6.23534      6.37568      8.54697        -0.105366      0.033082     -0.155648
Ni	      2.13278      2.14773      0.02330         0.051461     -0.109018      0.070206
O	      2.11464      1.98190      2.13642         0.059137     -0.094365      0.118659
O	      4.31119      4.23576      2.28535         0.041784      0.030597      0.224498
O	      4.23380      2.19611      4.28321         0.076654     -0.023267      0.012668
O	      6.24338      4.19228      4.30426         0.118793     -0.029304      0.011883
O	      6.31176      2.20706      6.28311        -0.101929      0.013280     -0.021208
O	      8.28936      4.22911      6.41142        -0.020401      0.099833      0.030927
O	      2.08916      4.24907      4.24343         0.006240      0.056855     -0.065811
O	      4.15957      6.36577      4.24040        -0.029891     -0.031152     -0.035110
O	      4.27005      4.19883      6.22364        -0.038718      0.053241     -0.033424
O	      6.29911      6.24844      6.33120        -0.033351     -0.008948     -0.078665
O	      6.25215      4.22696      8.51861        -0.012888     -0.085339     -0.006855
O	      8.28226      6.37876      8.47397         0.122343      0.014718     -0.080758
O	      2.09512      6.35621      6.49438         0.072907     -0.072240      0.577061
O	      4.18435      8.46441      6.17886         0.120595     -0.032951     -0.281697
O	      4.12537      6.36313      8.49250        -0.308053      0.003580     -0.005825
O	      6.28646      8.59269      8.59084         0.033775      0.118868      0.184496
O	      6.26302      6.39924     10.67036        -0.000646      0.126784     -0.029720
O	      8.35956      8.45673     10.64362        -0.053559      0.008115     -0.099648
