# total energy = -257.17231277 eV
 
CRYSTAL
PRIMVEC
-0.052099 6.282400 6.477814 
6.299586 0.005685 6.418940 
4.226424 4.176452 -0.023334 
PRIMCOORD
36 1
Li	      8.28498      2.19857      6.36419         0.002743      0.035719     -0.058915
Li	      4.20661      2.06173      2.32322         0.042757      0.011912      0.121288
Li	      8.36751      4.33973      4.38823         0.020217      0.062802      0.068962
Li	      6.21343      2.15458      4.38140        -0.005167      0.013161      0.019555
Li	      6.28600      2.09789      8.42527        -0.006413      0.029923     -0.141590
Li	      2.23552      2.01405      4.33130         0.057027     -0.005256      0.047439
Li	      4.28508      2.05358      6.27460         0.018346      0.045082     -0.007768
Li	      6.38998      4.03756      6.31291         0.010995      0.034964     -0.031611
Li	      8.38637      6.31433     10.71380        -0.009439      0.004951     -0.048966
Sc	      6.27560      0.15463      6.35293        -0.123603      0.118166      0.007882
Sc	      2.10034      4.12745      2.13115        -0.059800      0.065839      0.013045
Ti	      6.32587      4.27986      2.26737        -0.052153      0.129601      0.379856
Ti	     10.45069      8.32904     10.68154        -0.056376     -0.118439     -0.133570
Ti	      2.06947      4.12022      6.37589         0.132914     -0.285296      0.029680
Ti	      8.40834      8.28751      8.66622         0.041762     -0.177734     -0.168720
Cr	      4.13029      6.30384      6.44165         0.183410     -0.153897     -0.060870
Fe	      4.24027      4.07707      4.27102         0.055714      0.313015      0.076165
Fe	      6.24763      6.33977      8.65657        -0.025482     -0.087465     -0.052042
O	      2.11164      2.00945      2.15208         0.024724     -0.156149     -0.030679
O	      4.28808      4.19297      2.07619         0.094902      0.036684     -0.116007
O	      4.21391      2.14767      4.28347         0.003215     -0.201259      0.011224
O	      6.36804      4.19465      4.11308         0.124171      0.008609     -0.389814
O	      6.32538      2.09133      6.37560         0.039143     -0.167173      0.028771
O	      8.45962      4.18702      6.53423         0.011975     -0.024694     -0.058713
O	      2.04168      4.19986      4.36522        -0.178203     -0.025083      0.010763
O	      4.16127      6.32264      4.44189        -0.029200      0.128402      0.036988
O	      4.08911      4.28101      6.52950        -0.087050      0.031895      0.021323
O	      6.16031      6.38630      6.45904        -0.075099      0.261720     -0.004605
O	      6.24694      4.11045      8.64877        -0.063602      0.006373      0.193362
O	      8.33352      6.31449      8.59587         0.039232      0.125624      0.059424
O	      2.09387      6.19125      6.54306        -0.040298     -0.002552     -0.011998
O	      4.23521      8.32685      6.36239        -0.077745      0.007940     -0.059671
O	      4.11871      6.23241      8.48701        -0.126840      0.029762      0.028962
O	      6.33890      8.48973      8.45413        -0.021129     -0.010386      0.068651
O	      6.25535      6.11843     10.77419         0.026724     -0.087501      0.096824
O	      8.42712      8.34970     10.58269         0.107628      0.000736      0.055376
