# total energy = -249.30392110 eV
 
CRYSTAL
PRIMVEC
-0.035060 6.415401 6.392870 
6.375931 0.000872 6.356816 
4.241927 4.244165 0.009231 
PRIMCOORD
36 1
Li	      0.21947      6.33592      6.27408        -0.056046     -0.007004      0.001660
Li	      2.16524      8.30118      6.31748        -0.024251      0.058519     -0.020896
Li	      2.24120      6.24823      8.23086        -0.037705      0.033397      0.041221
Li	      6.47225      8.42018     10.50406         0.006438     -0.023950      0.026556
Li	      4.20798      2.20655      6.37889        -0.000897     -0.051239      0.008048
Li	      2.10981      4.48154      6.49038        -0.019508     -0.087436     -0.022922
Li	      4.01958      6.42478      6.48193         0.106831      0.024521     -0.007244
Li	      8.21776      8.60011      8.52703         0.067950      0.039732      0.017440
Li	      6.35141      6.57558      8.54319        -0.021973     -0.026101      0.003241
Sc	      4.33083      8.48425      8.33624        -0.008077     -0.052314      0.056764
Sc	      8.55717     10.53866     10.62000        -0.006135      0.076474      0.060026
Ti	      6.33443      2.11231      8.38985         0.058252      0.000872     -0.430989
Ti	      8.49060      4.31607      8.36411        -0.016768      0.002464     -0.335991
Ti	      6.33469      6.40670      4.39780         0.201214     -0.060252      0.066975
Ti	      6.22089      4.27349      6.46538        -0.073499     -0.124553      0.080573
Cr	      4.23193      4.24238      4.29412         0.028705     -0.093338     -0.013492
Ni	      4.19252      8.54378      4.39865        -0.013155      0.032534     -0.113938
Ni	      8.38306      6.49272     10.73292         0.058833     -0.038937     -0.102804
O	      2.04073      2.25879      2.23132        -0.043952      0.031232      0.076104
O	      4.13110      4.31558      2.18793        -0.053170      0.058733     -0.036164
O	      4.06867      2.14927      4.21144        -0.183779      0.045031      0.070745
O	      6.30097      4.36029      4.39424        -0.042035      0.087307      0.092614
O	      6.36596      2.25484      6.48949        -0.056695      0.201607      0.338717
O	      8.35308      4.30637      6.44981        -0.052249      0.021738      0.293585
O	      2.16180      4.18032      4.18166         0.035536     -0.089220     -0.017560
O	      4.33627      6.36275      4.16536         0.078654      0.017312      0.007761
O	      4.35470      4.24493      6.33273         0.146527      0.027218      0.163788
O	      6.37302      6.28459      6.27448        -0.097133     -0.019677     -0.107367
O	      6.45828      4.18160      8.47930         0.028779     -0.023266     -0.118163
O	      8.58809      6.28156      8.60066         0.054776     -0.069441     -0.066802
O	      2.11009      6.40067      6.32632         0.071950     -0.064852      0.079663
O	      4.21647      8.52044      6.37743         0.012444     -0.002430      0.091924
O	      4.19111      6.46303      8.59849         0.029468     -0.011749     -0.062468
O	      6.28841      8.55141      8.52708        -0.052968     -0.030351     -0.017605
O	      6.33276      6.36055     10.64230        -0.022593      0.086721     -0.069467
O	      8.51187      8.53057     10.61749        -0.103772      0.030697     -0.033534
