# total energy = -257.03667408 eV
 
CRYSTAL
PRIMVEC
0.040842 6.351553 6.307135 
6.340044 0.023168 6.324877 
4.234268 4.253736 0.007668 
PRIMCOORD
36 1
Li	      6.41632      4.21101      2.29993         0.031156     -0.065365      0.000029
Li	      8.30296      4.31953      4.23105        -0.085084      0.034027      0.021477
Li	      6.28703      2.30134      4.20594        -0.013846      0.027889      0.002881
Li	      6.39959      6.23493      4.41740         0.042967      0.137846      0.083082
Li	      8.30355      6.37214      6.20247        -0.068757      0.036776     -0.044264
Li	      6.33747      4.51536      6.19509         0.001806      0.128704      0.034788
Li	      4.25470      8.44851      4.19865         0.053134     -0.059450      0.075021
Li	      4.47099      6.29921      6.29456         0.069328      0.031236     -0.004850
Li	      6.33246      6.33377      8.26568        -0.056868      0.085646     -0.197845
Sc	      8.49435      8.52645     12.54707         0.189619     -0.055281     -0.021076
Sc	      4.36400      8.33659      8.51791         0.255663     -0.054923     -0.067095
Ti	      6.40845      6.38903     12.49702        -0.027248     -0.423745     -0.000791
Ti	      8.38500      4.34380      8.47451        -0.218627     -0.022596      0.337611
Ti	      8.40738      6.37494     10.50298         0.331687     -0.409829      0.000641
Ti	      4.23242      4.29881      8.34202        -0.645219      0.339386     -0.488734
Cr	      4.27058      6.37310      2.13582         0.124966      0.028537      0.010513
Cr	      4.33630      4.23475      4.31033        -0.046456     -0.179635      0.256285
Co	      6.40402      8.35959      6.31689        -0.061869      1.193247     -0.024756
O	      2.08973      2.22301      2.05816        -0.082062      0.011987      0.036604
O	      4.16632      4.28663      2.17583         0.015281      0.102129     -0.242375
O	      4.26244      2.23521      4.18299         0.043579     -0.021244     -0.009492
O	      6.25833      4.26728      4.25127         0.033832     -0.051066     -0.076501
O	      6.39906      1.97689      6.43475        -0.125642     -0.165988     -0.020665
O	      8.55520      4.25472      6.41284         0.337711      0.015691      0.006659
O	      2.18041      4.30398      4.18208         0.021965      0.070127     -0.758133
O	      4.14331      6.28241      4.13138        -0.346539      0.075064     -0.061839
O	      4.30432      4.26832      6.37299         0.114868     -0.042677      0.070302
O	      6.36876      6.42817      6.33179         0.042997     -1.014383      0.051035
O	      6.36691      4.18796      8.45289         0.062645     -0.095950      0.035544
O	      8.54697      6.41998      8.41778         0.026967      0.057297      0.213512
O	      2.08250      6.38257      6.24178        -0.349267      0.444683     -0.270448
O	      4.22191      8.61778      6.37267        -0.251481      0.197907     -0.154402
O	      4.25675      6.28759      8.45422         0.000122     -0.282815      0.016737
O	      6.46698      8.49708      8.39726         0.242408     -0.063011      0.657187
O	      6.41317      6.35589     10.57574         0.401276      0.015131      0.548937
O	      8.50785      8.42143     10.45654        -0.065009     -0.025353     -0.015579
