# total energy = -254.85330012 eV
 
CRYSTAL
PRIMVEC
-0.030792 6.420331 6.380198 
6.457491 0.020724 6.329464 
4.326351 4.267051 -0.007356 
PRIMCOORD
36 1
Li	     10.57264      4.44729      6.29347         0.061270     -0.014326     -0.010069
Li	      8.48437      2.36080      6.34933         0.027664     -0.066090      0.010316
Li	      4.15642      2.25268      2.08903        -0.054068      0.035313     -0.056046
Li	      8.65594      4.32994      4.46672         0.055549     -0.004237     -0.091951
Li	      6.46274      2.11996      4.46219         0.056209     -0.036049     -0.103358
Li	      6.49045      2.16515      8.20847         0.044494     -0.041531      0.055870
Li	      2.26874      4.12993      1.88202         0.078319     -0.035247      0.041916
Li	      4.54110      1.94509      6.29666         0.078002     -0.039061      0.049748
Li	      6.37960      8.53784      6.35844        -0.004105      0.036151      0.015525
Sc	      2.06669      0.07854      2.04128        -0.052686     -0.028505      0.006677
Sc	      6.46707      6.45212      8.40578        -0.004406      0.010133      0.015967
Ti	      2.18705      6.39235      4.33438        -0.003392      0.007357      0.077496
Ti	      4.30490      4.18840      4.21671         0.123664     -0.194505     -0.165018
Ti	      4.26160      6.49496      6.34593        -0.109256      0.323449      0.060190
Ti	      4.30549      4.23376      8.37871        -0.016456     -0.096336      0.025740
Cr	      2.18891      2.14084      4.24452         0.070656     -0.035508     -0.030274
Cr	     -0.01792      4.31221      4.28775        -0.027949      0.032258     -0.022097
Cu	      6.71338      4.06363      6.32472         0.140853     -0.113847      0.047935
O	      2.18076      2.09071      2.24357        -0.017941     -0.046439      0.038762
O	      4.32912      4.26805      2.29788         0.032875     -0.024309      0.210577
O	      4.18459      2.29834      4.26522        -0.048538      0.155472      0.066869
O	      6.27448      4.38774      4.13899        -0.095780      0.032770      0.070167
O	      6.47428      2.10372      6.33338         0.011178      0.017270     -0.009892
O	      8.67235      4.30649      6.32747        -0.007118      0.008771      0.002141
O	      2.09242      4.32951      4.25780        -0.096884      0.033788     -0.028251
O	      4.31794      6.46045      4.29333        -0.022225      0.070146      0.012473
O	      4.23625      4.39964      6.36360        -0.123953      0.118463      0.004154
O	      6.29354      6.43276      6.32046        -0.111761      0.101122     -0.074903
O	      6.27660      4.36832      8.61180        -0.104136     -0.014060     -0.023117
O	      8.56469      6.55578      8.54929        -0.045390      0.156936     -0.069580
O	      2.20173      6.37193      6.32373         0.006292      0.039031     -0.090777
O	      4.30360      8.39557      6.29800        -0.018707     -0.206081     -0.013634
O	      4.28875      6.34245      8.40192         0.003360     -0.054310     -0.019457
O	      6.64701      8.56692      8.47969         0.121481     -0.031563      0.026644
O	      6.59230      6.32849     10.54521         0.038690     -0.028461     -0.007509
O	      8.73815      8.43197     10.47448         0.014193     -0.067962     -0.023234
