# total energy = -260.51185197 eV
 
CRYSTAL
PRIMVEC
0.035419 6.233842 6.686541 
6.342519 0.021391 6.699701 
4.207049 4.144173 0.034738 
PRIMCOORD
36 1
Li	      6.29755      0.04596      6.67562        -0.005641     -0.024893      0.029971
Li	      6.32371      4.14423      2.28779        -0.005722     -0.042488      0.007012
Li	      8.42502      4.22485      8.86522        -0.006126      0.069148     -0.026254
Li	      6.29960      6.22859      4.53343         0.007629      0.009687     -0.062400
Li	      4.21953      4.22490      4.49719        -0.010260     -0.031759     -0.005424
Li	      8.47790      6.20353      6.82797         0.016374     -0.000129      0.063025
Li	      2.19984      6.16434      4.45734        -0.014767     -0.000631     -0.020707
Li	      4.24485      6.19749      6.61400        -0.061142     -0.033929     -0.094203
Li	      6.42049      6.23586      8.91754         0.051264     -0.000172      0.037453
Sc	      4.24370      8.33427      8.87832        -0.040346      0.026079      0.048545
Sc	      0.06913      4.16509      4.45190         0.080201     -0.082170     -0.083624
Ti	      2.10178      8.16047      6.77460         0.321576     -0.259449      0.316912
Ti	      4.17086      6.09917      2.30670        -0.113083     -0.205683      0.158111
Ti	      8.36433      4.22100      4.55304        -0.184314      0.350102      0.073394
Ti	      2.27019      4.05690      6.61530         0.474597      0.140863     -0.089947
Cr	      6.32696      2.05703      4.53978        -0.181498      0.026721     -0.292511
Cr	      4.23799      4.19124      8.89018         0.038739     -0.073402     -0.118831
Fe	      6.30128      4.26335      6.74322         0.012663      0.152178     -0.042655
O	      2.08338      2.11652      2.11463        -0.063311     -0.005562      0.007399
O	      4.20580      4.20109      2.28063        -0.021357      0.156791     -0.031107
O	      4.25405      2.00097      4.35586        -0.007799     -0.210103      0.008921
O	      6.42618      4.12040      4.53849         0.231401     -0.002751      0.015706
O	      6.38761      2.15001      6.92102         0.079551      0.021187     -0.045004
O	      8.45344      4.09723      6.55777         0.061349     -0.129542     -0.135192
O	      2.08479      4.17771      4.68828        -0.020552     -0.010825      0.135472
O	      4.25984      6.25488      4.26557        -0.004685      0.030231     -0.071848
O	      4.15740      4.18275      6.56568        -0.564732      0.045975      0.120640
O	      6.35978      6.33509      6.73049        -0.136203     -0.121096     -0.026300
O	      6.32494      4.12048      9.01766         0.056187     -0.002546      0.005732
O	      8.58443      6.25971      8.94908         0.208483     -0.049430     -0.012507
O	      2.15055      6.27354      6.67871        -0.046055      0.221935     -0.026879
O	      4.24554      8.27917      6.71407         0.087615     -0.010348     -0.037159
O	      4.23213      6.24649      9.16853         0.004743      0.072718      0.115928
O	      6.34844      8.34125      8.69013        -0.031180     -0.008404     -0.061236
O	      6.24893      6.25576     11.16185        -0.110761     -0.036443      0.067919
O	      8.45341      8.37488     11.38118        -0.102837      0.018142      0.071647
