# total energy = -255.96453788 eV
 
CRYSTAL
PRIMVEC
0.044830 6.295201 6.305557 
6.355114 0.040085 6.310397 
4.268768 4.232181 -0.005696 
PRIMCOORD
36 1
Li	      4.30578     10.46149      6.30130        -0.053491      0.004403      0.004147
Li	      2.16518      2.15474      0.04019         0.002427      0.062580      0.008310
Li	      4.28943      8.42749      8.38899         0.037484      0.034991      0.046363
Li	      4.29520      0.08203      4.21702         0.064309      0.090559     -0.013909
Li	      0.04515      2.07534      2.05279        -0.021531     -0.033775     -0.069410
Li	      2.21182      2.11635      4.19087         0.105445     -0.024822      0.004768
Li	      8.46336      6.30256      6.29622        -0.041006     -0.054868     -0.017823
Li	      6.35630      8.42564      6.34241        -0.022335     -0.027806      0.050332
Li	      6.41173      6.36103      8.39065         0.014801      0.010662     -0.027634
Sc	      2.17206      4.10524      2.04163         0.020250      0.029224     -0.110737
Sc	      4.33718      6.48285      6.34256         0.158614      0.078371      0.027883
Ti	      8.44219      6.36536     10.56596        -0.055861     -0.043962      0.008605
Ti	      6.32873      2.14250      4.27882        -0.097369     -0.006700      0.259642
Ti	      4.30152      4.17599      4.24874        -0.009732     -0.188669     -0.018230
Ti	      6.42109      4.22801      6.21625         0.110701     -0.084297     -0.085217
Cr	      2.09482      0.07435      2.05158         0.023425      0.043397     -0.040237
Cr	      8.53381      8.42172      8.38952        -0.049444     -0.000739      0.003597
Ni	      6.36156      4.28749     10.53972         0.072894     -0.145446     -0.054561
O	      2.13639      2.07689      2.11774         0.024683      0.019671     -0.022229
O	      4.30375      4.23196      2.19181         0.090014      0.007528      0.123547
O	      4.34162      2.20048      4.20271         0.094778      0.152312      0.028460
O	      6.36962      4.22607      4.11043        -0.189980     -0.086562     -0.149475
O	      6.36823      2.20273      6.23221         0.057852      0.057649     -0.130569
O	      8.38416      4.25731      6.31594        -0.132661     -0.018350      0.082171
O	      2.18889      4.28268      4.18083        -0.091977      0.052544      0.018283
O	      4.16752      6.26307      4.24730        -0.078135      0.021347      0.082701
O	      4.32319      4.22156      6.34115         0.128619      0.051592      0.086707
O	      6.36078      6.22255      6.28383        -0.041491     -0.045425     -0.025489
O	      6.34457      4.22094      8.37176        -0.052245     -0.012950     -0.015071
O	      8.51298      6.37650      8.55014        -0.063514      0.016853      0.145853
O	      2.17906      6.33224      6.27213         0.036914      0.007505     -0.122712
O	      4.31512      8.45438      6.24804         0.007050     -0.105184      0.032380
O	      4.16953      6.22452      8.40545         0.007619     -0.002418     -0.091500
O	      6.52184      8.52526      8.46947         0.021864      0.077723      0.020730
O	      6.46139      6.36310     10.51634        -0.011603      0.062586     -0.047657
O	      8.51696      8.39061     10.41904        -0.067367      0.000478      0.007983
