# total energy = -92.83370494 eV
 
CRYSTAL
PRIMVEC
-2.050468 4.207558 -2.051815 
1.957929 4.114101 1.957306 
2.014811 0.048398 -6.024833 
PRIMCOORD
16 1
Li	      1.90254      6.17195     -4.01593         0.156597      0.150421     -0.151765
Li	      1.93177      4.14698     -5.96992         0.130115     -0.007728     -0.368972
Li	     -0.01347      2.07198     -2.01316        -0.098123     -0.091787      0.107735
Li	      1.94414      4.10043     -2.03940         0.018819      0.023541      0.368789
Mn	      3.88365      4.10041     -3.97635         1.378283      0.039276     -0.531440
Mn	     -0.03681      6.17128     -2.07886        -0.498248      0.833117      0.225053
Ni	      0.00139      4.14548     -4.04527        -0.556608     -0.300043     -0.224239
Ni	      1.91695      2.07372     -3.93779         0.164299     -0.733083     -0.227121
O	     -0.02736      4.23286     -6.06211        -0.258044     -0.144695     -0.739083
O	      1.82676      6.21390     -2.04579         0.567475     -0.056339      0.088107
O	      2.02008      4.05770     -4.00939         0.019103      0.432691      0.028538
O	      1.93121      3.91186      0.03467        -0.054005     -0.022399      0.529830
O	     -0.07408      6.13078     -3.94204         0.009354      0.581098     -0.652505
O	     -0.06894      6.31217     -0.15539        -0.168712      0.281273      0.764301
O	     -0.12637      4.28698     -2.02926        -0.331224     -0.639945      0.420974
O	      0.06006      1.88466     -0.01939        -0.479081     -0.345398      0.361799
