# total energy = -248.49701151 eV
 
CRYSTAL
PRIMVEC
-0.004289 6.438744 6.408495 
6.404325 -0.142847 6.545930 
4.203389 4.318006 -0.028304 
PRIMCOORD
36 1
Li	      6.52039     10.56591      8.70828        -0.061344      0.109001     -0.097925
Li	      4.27455      1.96379      2.37915        -0.160564      0.072367     -0.079458
Li	      4.12394      0.17915      4.15863        -0.005958      0.025377     -0.019436
Li	      6.50309      6.33059      4.38156        -0.150789      0.104823     -0.063322
Li	      4.24529      4.04380      4.45064        -0.179658      0.082029     -0.057891
Li	      4.11224      2.26616      6.23107        -0.039587      0.011522      0.060244
Li	      6.54285      8.43713      6.51800        -0.035666     -0.017702     -0.110732
Li	      4.28089      6.21090      6.63605         0.048935     -0.022495     -0.025204
Li	      4.10054      4.43343      8.42382         0.120623     -0.030765     -0.009007
Sc	      6.26395      4.26572      6.30750        -0.012573      0.127802      0.342821
Sc	      6.27252      6.53400      8.59274         0.200432     -0.354019     -0.140849
Ti	      6.37610      6.31757     12.90066        -0.077712     -0.132072      0.596019
Ti	      2.15984      8.54295      6.44017         0.223423      0.078714      0.606167
Ti	      4.12922      6.37342      2.17342        -0.168382     -0.360643      0.338580
Ti	      0.04691      4.25783      4.23969         0.663309     -0.391749     -0.459039
Fe	      2.13151      6.41612      4.28480         0.134501     -0.226248     -0.100315
Co	      2.12141      4.25345      2.17798        -0.022094      0.152598      0.043121
Cu	      6.12586      2.35560      4.07640        -0.116752      0.058324     -0.072441
O	      1.97809      2.19836      1.97888         0.038116     -0.337181     -0.295251
O	      4.20298      4.45708      1.95444         0.215838      0.159186     -0.359432
O	      4.20437      2.10709      4.32030         0.334720     -0.008098     -0.032526
O	      6.38943      4.31608      4.35670        -0.011813     -0.170033     -0.107425
O	      6.49184      1.93801      6.66851        -0.025426     -0.024936     -0.225407
O	      8.59794      3.99844      6.57198         0.124326     -0.154654     -0.333161
O	      1.97501      4.36497      4.29326        -0.375943     -0.113550      0.313489
O	      4.28468      6.59752      4.10005         0.051197      0.191124     -0.093344
O	      4.30338      4.23484      6.44080         0.117149     -0.040966     -0.013588
O	      6.39435      6.27716      6.56994        -0.017643     -0.058703      0.021549
O	      6.37386      4.07780      8.79459        -0.301250      0.002339      0.054566
O	      8.61823      6.22438      8.68591         0.083657      0.381208     -0.096908
O	      1.95955      6.57292      6.43850        -0.230076      0.248116     -0.058665
O	      4.13293      8.72984      6.29391        -0.202727      0.286862      0.091588
O	      4.30718      6.39176      8.60202         0.064368      0.022028      0.086404
O	      6.39625      8.48459      8.50765        -0.038836      0.149701      0.213010
O	      6.36230      6.13296     10.92130        -0.118428      0.048099      0.024274
O	      8.64781      8.32565     11.01320        -0.067375      0.132596      0.059491
