# total energy = -250.66802067 eV
 
CRYSTAL
PRIMVEC
0.009905 6.303836 6.335863 
6.304038 0.030223 6.316003 
4.242809 4.229729 -0.020143 
PRIMCOORD
36 1
Li	      6.31785      6.30483     12.59898         0.016970     -0.023460     -0.056258
Li	      6.35224     10.49562      8.43976        -0.014071     -0.048788      0.031942
Li	      4.27598      8.45209      8.42856         0.059989      0.044990      0.033723
Li	      8.44232      4.26697      4.21048         0.005636      0.011248     -0.044834
Li	      6.29374      2.17850      4.19947        -0.034637      0.064484     -0.042688
Li	      4.24844      4.20576      4.21520         0.019686     -0.057131      0.005392
Li	      6.33032      4.21898      6.24203        -0.025391     -0.004108     -0.084764
Li	      0.04819      4.24732      4.27220         0.024043      0.088821      0.034098
Li	      4.20082      6.34311      6.32810        -0.003297      0.008865      0.058731
Sc	      8.39847      8.53154      8.45469        -0.037607      0.184440      0.044779
Sc	      6.26563      6.35466      8.49027        -0.159448      0.031925      0.104568
Ti	      2.26588      8.35760      6.23738         0.385456     -0.154555     -0.105626
Ti	      4.30250      6.22415      2.10855         0.095686     -0.535478     -0.025001
Ti	      6.28777      6.24228      4.18763         0.052989     -0.533838      0.065673
Ti	      4.29144      2.07780      6.18723        -0.025404      0.131403     -0.414890
Fe	      2.11965      6.28433      4.29591        -0.017011     -0.005883      0.063018
Co	      2.12447      4.19874      2.13371         0.089164      0.030467      0.030194
Ni	      2.05472      4.25295      6.30609        -0.098790      0.069859      0.088508
O	      2.06510      2.10444      2.08301        -0.029131      0.048104     -0.011301
O	      4.20341      4.36047      2.09866        -0.047789      0.523741      0.022406
O	      4.15974      2.11427      4.31776        -0.042763     -0.057418      0.313777
O	      6.32899      4.40666      4.19746        -0.046459      0.487204     -0.013299
O	      6.27167      2.14675      6.36086        -0.036263      0.018778      0.028890
O	      8.43504      4.27574      6.35311        -0.017173      0.037391      0.050162
O	      2.11403      4.11317      4.22860        -0.004368     -0.152792     -0.153468
O	      4.26032      6.33910      4.13882         0.029614     -0.009594     -0.172596
O	      4.15869      4.05150      6.37076         0.100090     -0.182453     -0.017423
O	      6.43693      6.36541      6.24055         0.036534     -0.150044     -0.059097
O	      6.28178      4.17107      8.42241         0.001878     -0.104618     -0.006592
O	      8.48640      6.36818      8.32083         0.100373     -0.048022      0.029164
O	      2.13215      6.44033      6.37770         0.027817      0.346058      0.020179
O	      4.11898      8.43863      6.32107        -0.438456      0.014292     -0.007102
O	      4.27461      6.28670      8.41631         0.009937     -0.053764     -0.034042
O	      6.34454      8.42956      8.36207         0.036563     -0.064251      0.072105
O	      6.42100      6.35352     10.47916        -0.013475      0.018485     -0.121911
O	      8.43095      8.50372     10.63940        -0.000891      0.025641      0.273584
