# total energy = -254.81618944 eV
 
CRYSTAL
PRIMVEC
0.028046 6.434872 6.331263 
6.283005 0.058468 6.301062 
4.227787 4.308070 0.000386 
PRIMCOORD
36 1
Li	      0.06477      6.37935      6.24254         0.044077     -0.024022     -0.015886
Li	      4.27754      8.61673      8.44626         0.028904      0.004101      0.011092
Li	      4.29439      6.54040     10.53326         0.053432     -0.000238     -0.010776
Li	      6.21850      2.12670      4.21009         0.002791     -0.049610     -0.048803
Li	      4.25013      6.41226      2.12119        -0.021997     -0.037309     -0.026291
Li	      4.19779      4.29958      4.20232        -0.073680     -0.035859      0.022331
Li	      4.29787      8.64656      4.33408         0.003887      0.056805      0.020685
Li	      6.22379      8.70626      6.32146        -0.068397      0.058860      0.047195
Li	      4.21790      6.50148      6.30384        -0.038789      0.019177      0.035341
Sc	      8.41221      8.68416      8.51019        -0.113572      0.055932     -0.050250
Sc	      6.24439      6.55719      8.47858         0.010437      0.102752      0.090698
Ti	      2.26567      8.50266      6.23932         0.647659     -0.225413     -0.084564
Ti	      2.27510      4.24400      2.14638         0.390598      0.013490      0.201278
Ti	      6.25226      4.28694      6.19589        -0.258688     -0.018927     -0.082847
Ti	      6.25032      6.46893      4.18111        -0.032456      0.105191      0.071559
Fe	      4.28381      2.16424      6.19747        -0.081010     -0.001468      0.074060
Fe	      2.19980      6.41200      4.29637         0.091879     -0.059032     -0.058156
Co	      6.27225      4.33312      2.18374        -0.000489     -0.057297     -0.073260
O	      2.08997      2.25216      2.08982         0.003040      0.071262     -0.030350
O	      4.09807      4.32172      2.10137        -0.386638     -0.026354      0.029260
O	      4.00733      2.12782      4.23076        -0.144308      0.056158     -0.151585
O	      6.26157      4.37442      4.27492        -0.034583     -0.014306      0.148186
O	      6.41496      2.34827      6.28487         0.111638      0.177936     -0.030285
O	      8.31886      4.25725      6.39776        -0.073459     -0.060187     -0.012495
O	      2.09302      4.22177      4.12591         0.030390     -0.151223     -0.211904
O	      4.30603      6.44775      4.19068         0.307434     -0.006811     -0.006349
O	      4.33623      4.31576      6.38794         0.296909      0.052824     -0.043830
O	      6.30202      6.36330      6.24006        -0.047736     -0.109569     -0.018501
O	      6.34507      4.41194      8.29482         0.015173     -0.063986     -0.104174
O	      8.41914      6.41392      8.32570         0.002169     -0.057076      0.065315
O	      2.10903      6.59792      6.40838         0.033484      0.259812      0.057881
O	      4.10932      8.61694      6.34341        -0.629023     -0.040417      0.007208
O	      4.23206      6.40400      8.47798        -0.033164     -0.031265      0.002112
O	      6.35870      8.61645      8.39925         0.104340     -0.011554      0.064811
O	      6.43768      6.51138     10.48626        -0.135939      0.003380     -0.118162
O	      8.48222      8.66159     10.61347        -0.004313      0.044242      0.229456
