# total energy = -251.86568533 eV
 
CRYSTAL
PRIMVEC
0.011022 6.370386 6.500207 
6.480675 -0.010868 6.522502 
4.305579 4.246515 0.007857 
PRIMCOORD
36 1
Li	      0.19274      6.27800      6.43863         0.009260      0.001735      0.041533
Li	      2.17228      6.34481      8.54000         0.027718     -0.023403     -0.035083
Li	     10.60390      6.42250      8.93173         0.017115      0.011342      0.052515
Li	      2.15830      4.34552      2.40057         0.005639      0.018995     -0.042348
Li	      2.31107      6.21993      4.28855         0.106179      0.076098      0.017615
Li	      2.10325      4.47273      6.32099        -0.031389      0.011435      0.030074
Li	      4.22270      6.34411      6.37854        -0.023403      0.043541     -0.102153
Li	      8.67982      8.35208      8.73248        -0.003780      0.025258     -0.000021
Li	      6.57233      6.33075      8.72466        -0.014030      0.019076     -0.039414
Sc	      2.15918      8.35240      6.54002         0.050771     -0.075550      0.086930
Sc	      8.62866      6.33338      6.71120         0.000763      0.007461     -0.011273
Ti	      4.27888      2.23846      2.07248        -0.076745      0.080467     -0.233787
Ti	      4.37844      6.31708     10.72078         0.268825     -0.003166     -0.385680
Ti	      6.48160      8.49156     10.74079         0.112522     -0.246207     -0.362797
Ti	      6.41873      4.31678      6.68688        -0.066962      0.081605      0.616725
Fe	      6.33697      6.45228      4.32416         0.355082      0.318280     -0.082980
Fe	      4.29052      4.33208      4.32774        -0.062243      0.133103      0.000796
Cu	      0.17700      4.27997      4.20918        -0.013502      0.192517     -0.022258
O	      2.35300      2.12565      2.13643         0.132905     -0.068502     -0.121921
O	      4.37150      4.08170      2.27790        -0.033732     -0.247178     -0.044361
O	      4.37323      1.99469      4.33704         0.168881      0.072136     -0.006580
O	      6.57848      4.14207      4.39148        -0.113523      0.079062      0.025874
O	      6.46553      2.20333      6.36675         0.014088     -0.002117     -0.055458
O	      8.46654      4.22886      6.34617        -0.029994     -0.070201     -0.000690
O	      2.21167      4.25196      4.38468        -0.169399     -0.329432     -0.021462
O	      4.30220      6.40588      4.33493        -0.230922      0.139953      0.057937
O	      4.49621      4.17512      6.43823         0.115633      0.009480     -0.009810
O	      6.53815      6.19486      6.50637        -0.037979     -0.192031      0.024429
O	      6.46008      4.21544      8.49802        -0.009820      0.026848     -0.469697
O	      8.62670      6.34858      8.63288        -0.019742     -0.018891      0.038246
O	      2.15134      6.42483      6.51419        -0.035767      0.049128     -0.006916
O	      4.28758      8.51151      6.72352        -0.075463      0.038642      0.337812
O	      4.32561      6.46942      8.88452        -0.002094     -0.006075      0.310488
O	      6.35445      8.47296      8.87898        -0.096137      0.027514      0.338073
O	      6.29620      6.49152     10.89982        -0.004924     -0.115979      0.004513
O	      8.43405      8.58503     10.86035        -0.233831     -0.064944      0.071130
