# total energy = -250.08762895 eV
 
CRYSTAL
PRIMVEC
0.013157 6.199401 6.314141 
6.433182 -0.005205 6.333064 
4.298902 4.156190 -0.013639 
PRIMCOORD
36 1
Li	      8.56131      2.08768      6.31877         0.008642     -0.026382      0.021998
Li	      6.39656      2.07285      4.21860        -0.013679     -0.022956     -0.011513
Li	      4.30989      6.25490      2.28042        -0.005530     -0.007306      0.003481
Li	      2.16816      4.08092      2.24397         0.024975      0.010898     -0.008179
Li	      2.15558      2.28434      4.17393         0.004594     -0.009119      0.049304
Li	      4.11741      4.07926      4.24229         0.018341      0.006138      0.027330
Li	      4.27433      2.11483      6.20107         0.003023      0.007476     -0.059890
Li	      0.15835      4.05115      4.11694         0.033662      0.034683     -0.000201
Li	      2.17196      4.09208      6.15366        -0.042138      0.004154      0.036846
Sc	      8.59571     10.29705     10.54072         0.001278      0.017760      0.022700
Sc	      4.27495      6.24325      6.16883         0.010407      0.034780     -0.089272
Ti	     10.70245      4.14285      6.31175        -0.054126     -0.096472      0.047382
Ti	      6.32299      4.28845      2.17508        -0.072598      0.450758      0.012507
Ti	      6.44625      4.00044      6.31263        -0.090499     -0.172318     -0.018996
Ti	      6.64535      6.25088      8.42032         0.371865      0.029478     -0.131077
Fe	      4.30293      2.13466      2.22043        -0.111286     -0.009465     -0.082361
Fe	      2.17677      6.16649      4.20514         0.074709      0.095530      0.032388
Ni	      8.62526      8.25277      8.42099         0.035920      0.058579      0.007533
O	      2.13989      1.94955      2.14629        -0.102058     -0.435453     -0.009563
O	      4.38818      4.23565      2.00365         0.191345      0.062151     -0.068966
O	      4.27873      2.01089      4.17632         0.011006     -0.059890      0.181230
O	      6.45586      4.09542      4.20390        -0.019449      0.019935     -0.037828
O	      6.45973      2.07756      6.31775        -0.013427      0.145832     -0.023576
O	      8.59941      4.12452      6.31792        -0.022118     -0.017880     -0.016562
O	      2.15744      4.21924      4.22057        -0.005620     -0.207945     -0.007605
O	      4.32167      6.25202      4.24170         0.078027      0.001631      0.058813
O	      4.49709      4.14763      6.33965         0.139964      0.001555      0.031334
O	      6.39805      6.12427      6.45161         0.021096     -0.057772      0.144560
O	      6.43797      4.24601      8.30711         0.005153      0.101652     -0.081409
O	      8.48106      6.21712      8.34934        -0.423393     -0.062579     -0.034348
O	      2.10192      6.20142      6.47524        -0.051680      0.048323      0.132219
O	      4.29600      8.41869      6.39174        -0.029121      0.137887     -0.056857
O	      4.21229      6.15760      8.40725         0.009314     -0.016313     -0.003999
O	      6.48561      8.21261      8.39361         0.048754     -0.211895      0.012495
O	      6.40393      6.18906     10.49245        -0.024642      0.014489     -0.055832
O	      8.58326      8.21734     10.47437        -0.010713      0.130058     -0.024087
