# total energy = -255.47579408 eV
 
CRYSTAL
PRIMVEC
0.057304 6.368001 6.453129 
6.327351 0.017547 6.493777 
4.214825 4.269094 0.015119 
PRIMCOORD
36 1
Li	      2.17928      8.48402      6.43080        -0.000207      0.035541     -0.006913
Li	      6.49433     10.54923      8.82418        -0.037629     -0.043269      0.070082
Li	      4.20066      6.35802     10.65048         0.009318     -0.001705     -0.000146
Li	      6.29010      2.20852      4.34466        -0.003081     -0.018255      0.050033
Li	      4.30159      4.18702      4.30758         0.025965      0.020080      0.010403
Li	      4.25355      2.13941      6.25218         0.002299      0.018074     -0.089749
Li	      4.19429      6.36935      6.60972        -0.005804     -0.048036     -0.015190
Li	      4.18273      4.46130      8.66705        -0.021925     -0.011406     -0.029094
Li	      6.28813      6.36347      8.62812         0.003622      0.031537     -0.021360
Sc	      4.30847      8.35797      8.70833        -0.069583     -0.023564      0.078033
Sc	      6.28746      4.27993      6.39407        -0.048495     -0.056985     -0.013999
Ti	      6.29120      0.10783      6.49025        -0.045021      0.225572      0.035970
Ti	      8.47061      4.30483      8.61522         0.013558      0.017201     -0.071254
Ti	      8.48655      6.52598     10.83876         0.143181      0.350591     -0.002625
Ti	      6.49351      8.41665      6.53764         0.351620     -0.145740      0.338014
Fe	      0.04077      2.10527      2.14133         0.079435      0.067017     -0.014751
Fe	      6.35903      6.37425      4.37329        -0.159129     -0.082791     -0.074551
Fe	      6.32696      4.28401     10.75662        -0.093420     -0.008487      0.019737
O	      2.11272      2.27405      2.13293         0.101464      0.186781     -0.031234
O	      4.18630      4.22240      2.08138        -0.095940     -0.083859     -0.146144
O	      4.17983      2.12675      4.26355         0.069575      0.000662     -0.082610
O	      6.30589      4.24306      4.41981         0.028483     -0.023951      0.015431
O	      6.33186      2.07096      6.48640        -0.042002     -0.238980      0.029544
O	      8.45784      4.29701      6.60315         0.115647     -0.018230      0.075257
O	      2.16931      4.33760      4.32164         0.010845      0.049378     -0.005639
O	      4.16728      6.41924      4.34892        -0.098680     -0.106415      0.011458
O	      4.17684      4.24069      6.47860        -0.353102     -0.031167      0.013112
O	      6.34194      6.48446      6.49056         0.047808      0.182172      0.095756
O	      6.45701      4.29671      8.61751         0.078952      0.090106      0.006924
O	      8.49919      6.25156      8.83511        -0.041371     -0.155979      0.138862
O	      2.08889      6.27066      6.33028        -0.011338      0.022458     -0.080037
O	      4.37595      8.65473      6.47630        -0.015499      0.047727     -0.030293
O	      4.25336      6.40550      8.62602         0.007291      0.035684     -0.011051
O	      6.38143      8.51916      8.41457        -0.028132     -0.037968     -0.282494
O	      6.47942      6.39274     10.92524         0.085474      0.067955      0.039582
O	      8.43879      8.38116     10.81845        -0.004179     -0.311749     -0.019066
