# total energy = -254.19489615 eV
 
CRYSTAL
PRIMVEC
-0.047154 6.484702 6.226698 
6.413719 -0.037388 6.217196 
4.248650 4.289381 0.002241 
PRIMCOORD
36 1
Li	      6.35627     10.69724      8.31029         0.000912     -0.053276      0.040686
Li	      4.24971      8.63834      8.29865         0.009080      0.049462      0.023185
Li	      4.25815      6.42732     10.36659        -0.033476     -0.017636      0.013364
Li	      6.37268      2.12487      4.12142         0.002665     -0.008544     -0.021334
Li	      0.00571      2.12190      2.02884         0.041607     -0.072949     -0.005612
Li	      4.29097      2.20367      6.21970         0.033032      0.012624     -0.050013
Li	      6.33140      4.23554      6.24106        -0.006740     -0.047639     -0.040496
Li	     10.54481      8.65722     10.37908        -0.016444      0.091445      0.012436
Li	      6.39833      8.59201      6.27847         0.057160      0.002152     -0.033145
Sc	      8.45152      4.33564      8.27671         0.088947     -0.198137     -0.015017
Sc	      6.36664      6.38890      4.16775         0.048329     -0.015389     -0.036493
Ti	      6.37113      6.43668     12.40315         0.072983     -0.059551     -0.027781
Ti	      8.46595      8.58140     12.40833        -0.060560     -0.020443     -0.225141
Ti	      4.33840      4.20068      4.28950         0.122639     -0.177017      0.261828
Ti	      6.23581      6.52493      8.15530        -0.005587      0.233010     -0.049942
Mn	      2.17483      6.48047      4.14534        -0.068387      0.042660      0.064720
Co	      4.25854      4.29053      8.29254        -0.028878     -0.068984      0.085896
Cu	      4.24750      6.53430      6.28610         0.050552      0.138239      0.019739
O	      2.09352      2.24364      2.00274         0.004376      0.043734     -0.017536
O	      4.15548      4.31931      1.98214        -0.029310     -0.023279      0.027196
O	      4.21124      2.29652      4.12405         0.004784      0.131673     -0.013912
O	      6.24017      4.31551      4.11740        -0.061247     -0.011551     -0.009747
O	      6.54673      1.99391      6.22149        -0.007458     -0.022535     -0.045292
O	      8.61025      4.14225      6.19216        -0.015200      0.044247      0.133716
O	      2.23892      4.24339      4.14967        -0.034256     -0.052546     -0.025830
O	      4.28081      6.25968      4.07639         0.070547      0.026909      0.051140
O	      4.28952      4.21878      6.13916        -0.010982     -0.033585     -0.431187
O	      6.44117      6.42979      6.26312         0.055141     -0.005650      0.207857
O	      6.38029      4.45123      8.31858        -0.260896      0.019951     -0.057892
O	      8.37394      6.40900      8.26308         0.038977      0.284595     -0.142137
O	      1.93711      6.59261      6.31581        -0.088841     -0.026340      0.029100
O	      4.08040      8.79993      6.22721         0.046868      0.102624      0.057535
O	      4.35529      6.41870      8.38020        -0.038244     -0.216557     -0.036032
O	      6.41816      8.40800      8.28675         0.107627     -0.138016     -0.019853
O	      6.37480      6.45666     10.46802        -0.035417     -0.019539     -0.031849
O	      8.52282      8.57727     10.50309        -0.054301      0.065838      0.307843
