# total energy = -251.91234635 eV
 
CRYSTAL
PRIMVEC
0.085402 6.478158 6.255933 
6.412469 0.089990 6.251390 
4.317693 4.358026 0.017181 
PRIMCOORD
36 1
Li	      2.26943      8.60774      6.30347        -0.080077      0.046252      0.029299
Li	      2.18871      0.26608      2.07600        -0.034903      0.025562      0.057613
Li	      8.73277     10.70927     10.33124         0.011122      0.031085      0.111787
Li	      0.21734      2.27590      2.17248         0.048597      0.015641     -0.133998
Li	      2.06605      4.16485      2.21289         0.012283     -0.010030     -0.034504
Li	      2.08366      2.20595      4.03703         0.094131      0.015464     -0.086985
Li	     10.58024      8.68368     10.35613        -0.007394      0.012830     -0.027036
Li	      8.71290      6.69275     10.30856        -0.066957      0.010476     -0.070884
Li	      4.47609      4.45138      8.45086        -0.037544     -0.028405      0.076881
Sc	      6.66706      8.73514     10.29457        -0.102673      0.027829      0.104233
Sc	      6.49910      4.43403      6.35897         0.363091     -0.364092     -0.015813
Ti	      6.49606      6.53475     12.45899        -0.250899      0.140602     -0.138263
Ti	      4.31136      4.49251      4.00178        -0.024287     -0.452334     -0.587316
Ti	      8.62249      6.56292      6.40281         0.318201     -0.330297      0.154888
Ti	      2.18871      4.40902      6.23455        -0.174694     -0.118484      0.028144
Mn	      4.12013      2.09424      2.15528         0.073495      0.240723      0.205736
Co	      4.27989      6.52987      6.28326        -0.070206      0.158801      0.181628
Ni	      6.45192      6.47556      8.40951         0.223311      0.094055      0.174178
O	      2.13949      2.20454      2.04292        -0.263528     -0.029275      0.036417
O	      4.29023      4.38160      2.09316         0.045001      0.054359      0.466749
O	      4.37842      2.40728      4.30014         0.038547      0.207004     -0.044498
O	      6.31464      4.34971      4.20978        -0.240260      0.004145      0.076971
O	      6.34631      2.18589      6.25167        -0.074468      0.053804     -0.060345
O	      8.65929      4.56019      6.23547        -0.047708      0.150535      0.038912
O	      2.35727      4.32832      4.31250         0.265820      0.099526      0.137253
O	      4.32791      6.35027      4.22723         0.000054     -0.010441      0.366973
O	      4.30065      4.27204      6.22283         0.103293      0.583630     -0.076359
O	      6.59427      6.57572      6.24180        -0.409975     -0.062385     -0.003830
O	      6.47975      4.44166      8.33462        -0.061919     -0.097769     -0.069397
O	      8.56024      6.60415      8.23131         0.008538      0.043037     -0.183684
O	      2.07647      6.35563      6.30827         0.459722      0.137340     -0.020560
O	      4.50454      8.82067      6.19414        -0.084486     -0.339487     -0.045482
O	      4.41933      6.50896      8.33055        -0.190107     -0.357107     -0.556308
O	      6.48765      8.57688      8.22269         0.110266      0.110062     -0.079349
O	      6.48211      6.63027     10.57377         0.054912     -0.007792      0.047133
O	      8.60655      8.73282     10.49002        -0.008297     -0.054865     -0.060185
