# total energy = -255.08278310 eV
 
CRYSTAL
PRIMVEC
0.034028 6.317360 6.493846 
6.285371 0.034958 6.492675 
4.191410 4.211632 0.022353 
PRIMCOORD
36 1
Li	      4.23913      8.37694      8.68940         0.034539      0.030499     -0.023619
Li	      4.20833      6.31678     10.75241         0.006597     -0.021467     -0.050118
Li	      4.20950      6.32290      2.28931        -0.012817     -0.023914      0.032315
Li	      4.18180      4.27946      4.55926         0.007544      0.016533      0.016136
Li	      4.18770      2.20715      6.46857         0.034761     -0.057047      0.029790
Li	      6.22148      4.22385      6.40052         0.003972     -0.028542      0.004895
Li	      2.16338      6.29119      4.43092        -0.041166      0.008142     -0.009609
Li	      2.20858      4.28323      6.41781        -0.059590      0.015050      0.023222
Li	      4.18107      6.20327      6.47710         0.047799      0.013610      0.044463
Sc	      2.08221      0.06425      2.13163        -0.117356     -0.052058      0.007350
Sc	      4.26786      4.19600      8.52519         0.020431     -0.083452     -0.062020
Ti	      6.10171      2.06261      4.39245        -0.036198     -0.214452      0.133163
Ti	      8.50015      4.32690      8.61413         0.207094      0.181914     -0.105762
Ti	      6.33407      6.31433      4.52510         0.140232     -0.143871      0.355226
Ti	      4.23616      8.35797      4.42212        -0.131461      0.158981      0.169866
Mn	      8.41412      8.45776     12.96529        -0.098240     -0.002988      0.023569
Co	      6.28183      0.05533      6.47090         0.069677     -0.020890     -0.045523
Co	      6.25027      6.36045      8.54777        -0.001508      0.076939      0.003326
O	      2.12352      2.17833      2.31492        -0.002114     -0.024195      0.082724
O	      4.11527      4.26288      2.20627        -0.188708     -0.032464     -0.024361
O	      4.20130      2.08543      4.34663         0.000199      0.003537      0.018996
O	      6.27150      4.23158      4.30824        -0.031100      0.057301      0.021767
O	      6.26358      2.12853      6.28018        -0.051849     -0.146340     -0.105179
O	      8.39168      4.21968      6.72761         0.357153      0.166314     -0.002002
O	      2.06670      4.14781      4.22389        -0.047083     -0.078781      0.044193
O	      4.30283      6.42720      4.36857         0.047047      0.112849      0.040503
O	      4.20099      4.20440      6.57532        -0.000230      0.041116     -0.042507
O	      6.32246      6.32416      6.37848        -0.015805     -0.023168     -0.445063
O	      6.38105      4.22557      8.78948         0.063238     -0.032678      0.025987
O	      8.36661      6.24882      8.68160         0.054829     -0.114426      0.013835
O	      2.07180      6.32707      6.56565        -0.435124     -0.042579     -0.116224
O	      4.26122      8.49858      6.30517         0.150360      0.191492     -0.049255
O	      4.19684      6.30749      8.61575        -0.033681      0.012896     -0.010698
O	      6.32801      8.48659      8.84573         0.000303      0.030595      0.012260
O	      6.28661      6.39393     10.74145        -0.003919      0.069091      0.025505
O	      8.48612      8.43525     10.77136         0.062172     -0.043549     -0.037151
