# total energy = -258.83085794 eV
 
CRYSTAL
PRIMVEC
-0.010329 6.379669 6.317950 
6.360400 -0.015278 6.323156 
4.241880 4.258106 -0.011783 
PRIMCOORD
36 1
Li	      2.14547      2.11090      0.04909         0.003588     -0.009266      0.071732
Li	      8.48062     10.59735     10.52129         0.041254     -0.038800     -0.008043
Li	      4.30319      6.35063      2.16426        -0.005659      0.013158      0.028306
Li	      2.15121      4.19549      2.16936         0.012232     -0.063474      0.042494
Li	      6.28922      6.40838      4.17137        -0.112561      0.014655      0.017315
Li	      4.15184      4.36358      4.19319        -0.042648      0.090624      0.015685
Li	      2.21234      6.31965      4.23809         0.053869     -0.009927      0.016444
Li	      2.14299      4.29161      6.24138        -0.005330      0.039111     -0.042984
Li	      4.17381      6.33454      6.25622        -0.051604     -0.053346     -0.030118
Sc	      4.10177      2.09050      2.11814         0.060946      0.035549     -0.041702
Sc	      6.45724      8.50340     10.54125         0.081828     -0.040780      0.028531
Ti	      0.08019      6.40914      6.33604         0.041057      0.021013     -0.057399
Ti	      8.42028      6.33136      6.28194         0.185814      0.067885      0.067263
Ti	      6.42824      4.27894      6.25784        -0.024338     -0.207035     -0.074837
Ti	      4.34503      8.36375      4.25094         0.061469     -0.260868      0.095478
Mn	      6.36122      6.34713      8.46020         0.029862      0.047244      0.006089
Cr	      4.25161      4.25926      8.39223        -0.030411     -0.027014      0.004843
Co	      2.07226      0.06596      2.12943         0.004364     -0.014126     -0.054047
O	      2.14556      2.09644      2.10818         0.002397     -0.114942      0.076226
O	      4.19357      4.19041      2.00135         0.080273      0.006842      0.037370
O	      4.32369      2.12960      4.26957         0.004727     -0.044916      0.045170
O	      6.35832      4.22048      4.31470         0.114623     -0.020644      0.113731
O	      6.33040      2.12571      6.31303         0.063656      0.013539      0.017619
O	      8.44897      4.29852      6.33809        -0.077125      0.053843     -0.018103
O	      1.93033      4.27642      4.19012        -0.172077      0.011014     -0.001135
O	      4.21595      6.52304      4.24901         0.008062      0.294714     -0.018518
O	      4.35126      4.17292      6.37731        -0.133221      0.121710     -0.073995
O	      6.43744      6.29574      6.26841         0.115513     -0.035338     -0.020022
O	      6.27103      4.21277      8.44478         0.028577     -0.017265     -0.084820
O	      8.49137      6.49087      8.25507        -0.007231      0.017987     -0.121715
O	      1.94397      6.40669      6.32701        -0.141399      0.000623      0.071574
O	      4.20593      8.59998      6.25007        -0.036643      0.010921      0.015775
O	      4.21365      6.32889      8.39801        -0.090403     -0.012297     -0.037543
O	      6.40769      8.53819      8.43001        -0.022616      0.058390     -0.024924
O	      6.32292      6.34526     10.63761        -0.036391      0.016888      0.001504
O	      8.53434      8.50634     10.40787        -0.004451      0.034325     -0.063246
