# total energy = -93.03039534 eV
 
CRYSTAL
PRIMVEC
-2.060876 4.228916 -2.062230 
1.967867 4.134984 1.967241 
2.025039 0.048643 -6.055416 
PRIMCOORD
16 1
Li	      1.92191      6.23476     -4.05680         0.100861      0.095372     -0.096964
Li	      1.95144      4.18918     -6.03068         0.088113     -0.002582     -0.246609
Li	     -0.01360      2.09307     -2.03365        -0.067659     -0.057835      0.080503
Li	      1.96393      4.14216     -2.06016         0.005884      0.018856      0.246175
Mn	      3.92318      4.14214     -4.01681         0.888418      0.019817     -0.358668
Mn	     -0.03718      6.23409     -2.10002        -0.307424      0.540538      0.135416
Ni	      0.00140      4.18768     -4.08645        -0.346921     -0.182160     -0.154254
Ni	      1.93646      2.09483     -3.97787         0.096711     -0.468618     -0.140676
O	     -0.02764      4.27593     -6.12381        -0.171369     -0.136250     -0.530217
O	      1.84535      6.27714     -2.06661         0.308659     -0.086424      0.060360
O	      2.04064      4.09900     -4.05020         0.067357      0.320869      0.018441
O	      1.95086      3.95167      0.03502        -0.064648     -0.022759      0.363154
O	     -0.07483      6.19318     -3.98216         0.012135      0.414561     -0.360742
O	     -0.06964      6.37642     -0.15697        -0.082528      0.184119      0.475293
O	     -0.12765      4.33061     -2.04991        -0.231489     -0.402627      0.302908
O	      0.06067      1.90385     -0.01958        -0.296099     -0.234878      0.205878
