# total energy = -258.73935120 eV
 
CRYSTAL
PRIMVEC
0.065757 6.419344 6.403340 
6.347545 0.105414 6.364596 
4.279622 4.302015 0.021340 
PRIMCOORD
36 1
Li	      8.42741      4.39271      4.24682        -0.017054     -0.009547      0.041451
Li	      6.33548      2.33114      4.24172         0.057645      0.035495     -0.020949
Li	      8.47508      4.41826      8.50447        -0.003946      0.022025     -0.046186
Li	      4.34823      4.25294      4.49083         0.084648     -0.034361     -0.046537
Li	      4.23034      2.45695      6.35513         0.025173      0.017156      0.020140
Li	      6.18803      4.35398      6.34428         0.011376     -0.030139     -0.004181
Li	      2.42817      4.28366      6.42230        -0.046564      0.003952      0.072429
Li	      4.31259      6.20845      6.43089        -0.000688     -0.006632     -0.002491
Li	      4.20599      4.38528      8.26165        -0.055390     -0.034383     -0.014948
Sc	      6.31479      0.13945      6.33318         0.028515      0.010698     -0.167053
Sc	      6.27482      2.32262      8.46794        -0.126758     -0.005354      0.041598
Ti	      8.50686      2.33557      6.33057        -0.035500      0.090889     -0.154224
Ti	      6.37357      4.42856     10.59659         0.007291      0.083423     -0.050350
Ti	      6.51046      6.43266      4.50412        -0.001988      0.020564      0.270209
Ti	      6.36459      6.50817      8.49815         0.081025     -0.119137      0.084565
Mn	      2.25203      6.32816      4.30957         0.054147     -0.048538      0.044684
Cr	      2.24616      6.41141      8.54531         0.021875     -0.156227     -0.079972
Fe	      4.36876      8.57859      8.58138         0.008561      0.188027     -0.055121
O	      2.08909      2.05181      2.09122        -0.008415      0.029611      0.017313
O	      4.40520      4.37673      2.08079         0.017610      0.047594      0.051260
O	      4.08574      2.20070      4.22718        -0.184620      0.037440      0.121842
O	      6.40972      4.50624      4.15745        -0.006406      0.019234      0.028034
O	      6.46602      2.21108      6.37165         0.059212      0.070587     -0.001687
O	      8.55804      4.20644      6.41786        -0.071097     -0.139152      0.020675
O	      2.00660      4.15213      4.25432        -0.060389     -0.080189     -0.008481
O	      4.39662      6.56936      4.23439         0.141870     -0.053552      0.040896
O	      4.29286      4.33462      6.36117         0.028392     -0.006123     -0.032719
O	      6.43182      6.46950      6.38895         0.014728     -0.020174     -0.191667
O	      6.38586      4.42654      8.57480        -0.036976     -0.100135     -0.097539
O	      8.44307      6.46846      8.53658        -0.061506     -0.025814     -0.040971
O	      2.16996      6.53701      6.47644         0.051782      0.006629      0.111064
O	      4.24664      8.64678      6.38315        -0.133320      0.007984     -0.083854
O	      4.36560      6.45872      8.52264         0.045518     -0.050286     -0.021504
O	      6.45762      8.62077      8.56706         0.067595      0.130104     -0.010907
O	      6.38753      6.48336     10.60056        -0.088519      0.020638     -0.042393
O	      8.64154      8.62955     10.76836         0.132174      0.077694      0.207573
