# total energy = -254.99345436 eV
 
CRYSTAL
PRIMVEC
0.033222 6.144378 6.358893 
6.398374 -0.011389 6.403317 
4.270717 4.132138 -0.012566 
PRIMCOORD
36 1
Li	      4.32971     10.20763      6.41509         0.065271     -0.177899      0.244026
Li	      6.37755     10.21202      8.47959        -0.125929     -0.076025     -0.005964
Li	      4.30588      6.11506     10.60208         0.043725      0.044571     -0.153420
Li	      2.17218      4.11966      2.16022         0.094729     -0.050204      0.102029
Li	      4.21842      4.12015      4.19702        -0.077807     -0.055462     -0.190335
Li	      6.41193      4.13382      6.42172        -0.017267      0.096370      0.103629
Li	      2.13618      6.07324      4.26288        -0.033870     -0.052086      0.052447
Li	      2.14529      4.14222      6.33408        -0.106239     -0.032387      0.026352
Li	      4.28694      4.11123      8.51745        -0.045798      0.070879      0.017484
Sc	      4.22421      6.12117      2.12811         0.164659     -0.307212      0.466696
Sc	      2.21619      2.07037      4.24307         0.241500      0.041859     -0.510027
Ti	      8.50110      2.16063      6.38720         1.442062      0.051101      0.558943
Ti	      6.42048      2.13785      4.27835        -0.199542      0.130639     -1.581673
Ti	      4.33094      2.01854      6.37350        -0.513368     -0.007674     -0.039204
Ti	      4.17927      6.01461      6.40052        -0.226164      0.308632      0.394117
Mn	      6.45603      4.18420     10.63979        -0.031884     -0.043546      0.074749
Cr	      6.44232      6.14935      8.47936        -0.154808      0.165307     -0.190327
Ni	      4.29470      2.14703      2.10228        -0.076443      0.168166     -0.031154
O	      2.12678      2.05677      2.07424        -1.176444     -0.033364     -0.200728
O	      4.28384      4.14635      2.09156        -0.062602      0.745953     -0.000251
O	      4.31619      2.03889      4.29737         0.223270     -0.095376      1.557612
O	      6.43553      4.02340      4.25299         0.045139     -0.278475      0.108888
O	      6.42014      2.03717      6.38215        -0.093181      0.014801     -0.201397
O	      8.55299      4.11694      6.36032        -0.027987     -0.006007     -0.054189
O	      2.15938      4.05466      4.27289         0.015569      0.042803      0.038293
O	      4.34854      6.12311      4.33450         0.007288     -0.044312      0.013101
O	      4.26091      4.09750      6.38823         0.067932     -0.074963     -0.082462
O	      6.42706      6.15089      6.39746         0.205823     -0.008211     -0.062387
O	      6.38246      4.12080      8.50061        -0.012301      0.082912     -0.027888
O	      8.48782      6.17281      8.37027         0.209181      0.018115     -0.179958
O	      2.30390      6.22315      6.37334         0.069930     -0.012830     -0.051035
O	      4.15761      8.14728      6.39067        -0.380696     -0.211527     -0.899385
O	      4.41324      6.18410      8.32494         0.064144     -0.454262     -0.327456
O	      6.40131      8.16318      8.62485         0.859532     -0.071624      0.534228
O	      6.42359      6.27665     10.50074         0.039352      0.133288      0.116619
O	      8.48658      8.21304     10.74966        -0.496776     -0.021951      0.380026
