# total energy = -261.32199162 eV
 
CRYSTAL
PRIMVEC
-0.003718 6.342853 6.321451 
6.319020 0.017349 6.300296 
4.228796 4.230728 -0.004621 
PRIMCOORD
36 1
Li	      2.29563      6.34093      8.37723         0.017503     -0.010046      0.002339
Li	      4.24463      8.23369      8.43579         0.024392     -0.055336     -0.022089
Li	      4.28672      6.39601     10.31589         0.022781     -0.001426      0.035529
Li	     10.42085      6.38343      8.41628        -0.033317     -0.031990      0.003321
Li	      8.38111      4.43474      8.42362        -0.007844      0.104156      0.015983
Li	      8.42827      6.35777      6.43225        -0.026843      0.052624      0.052182
Li	      6.30341      4.25046     10.44396        -0.008332      0.004291      0.019382
Li	      4.23131      6.35033      6.47065         0.062201     -0.057903     -0.021327
Li	      6.26221      6.33479      8.45957         0.047688      0.016890     -0.011510
Sc	      2.09928      2.11325      4.08386        -0.047983     -0.137618      0.059067
Sc	      6.31189      8.41820      6.44895         0.157891     -0.173558      0.109629
Ti	      4.12661      4.17291      0.12966        -0.152555      0.044026      0.143610
Ti	      2.14155      2.21317      0.11966         0.021099      0.058119      0.278180
Ti	      4.22557      4.23060      4.07619         0.094282      0.012997      0.029007
Ti	      6.44742      4.21553      6.40913         0.017411      0.134199     -0.041817
Mn	      4.26780      4.30753      8.44582        -0.090961     -0.095108     -0.064935
Cr	      6.27162      8.44416     10.48262         0.016587     -0.017804     -0.108342
Cr	      2.11315      6.33912      4.21001        -0.049086      0.087221     -0.327553
O	      2.09692      2.10122      2.01013         0.028060     -0.013703     -0.393459
O	      4.18950      4.26629      2.07352        -0.056447      0.001617     -0.121510
O	      4.23757      2.21375      4.13049         0.164129      0.168728     -0.072175
O	      6.28471      4.19555      4.25085        -0.104841     -0.079072     -0.008272
O	      6.33366      2.13225      6.21828         0.053311      0.001514      0.035193
O	      8.44294      4.28678      6.28421        -0.017885     -0.069577      0.048583
O	      2.15203      4.24340      4.23791         0.011651      0.153837     -0.058755
O	      4.19733      6.26630      4.14989        -0.158202     -0.121430      0.037959
O	      4.25185      4.21736      6.14334         0.025778      0.009772     -0.003355
O	      6.35722      6.30187      6.19057        -0.010810     -0.063909      0.007227
O	      6.37974      4.23173      8.23826         0.116523     -0.043918     -0.053991
O	      8.41587      6.40928      8.54582        -0.010282     -0.060628      0.168668
O	      2.01906      6.33642      6.27950         0.010033      0.081207      0.037002
O	      4.20973      8.52100      6.27999        -0.134904     -0.007769      0.024442
O	      4.23772      6.32015      8.41963         0.033966      0.133731      0.012833
O	      6.29956      8.46219      8.46784        -0.058258      0.001587     -0.011828
O	      6.38273      6.44601     10.66699        -0.021839     -0.073976      0.026321
O	      8.32848      8.37606     10.66364         0.065104      0.048255      0.174463
