# total energy = -251.36263932 eV
 
CRYSTAL
PRIMVEC
0.008965 6.376159 6.345198 
6.412014 -0.004273 6.358011 
4.270491 4.255076 0.001659 
PRIMCOORD
36 1
Li	      0.04619      6.36329      6.29930        -0.040083      0.049527     -0.031405
Li	      2.21273      6.38643      8.41052         0.012848      0.015529      0.062824
Li	      4.18667      2.12326      2.15629        -0.047443      0.061026      0.076526
Li	      8.55615      4.27885      8.37746         0.036019      0.041606     -0.099438
Li	      6.46861      6.32998      4.29701        -0.029698     -0.015584      0.003017
Li	      8.39200      6.31112      6.37432        -0.063454     -0.023671     -0.013705
Li	      6.51975      4.34814      6.31986         0.052213     -0.004745      0.011117
Li	      2.11454      6.36561      4.28225         0.012438     -0.005289     -0.028735
Li	      6.45106      6.34616      8.45359         0.005269     -0.028044      0.038335
Sc	      6.37893      8.38776     10.58367        -0.026191      0.008893      0.023937
Sc	     10.63366      6.35506      8.43281        -0.039546     -0.106927     -0.009305
Ti	      2.20516      2.15690      0.10016        -0.044142      0.122459      0.160413
Ti	      4.32313      4.25379      4.17592         0.115172     -0.054210     -0.240880
Ti	      6.34000      8.43613      6.38459        -0.116107     -0.316400     -0.049611
Ti	      4.30791      4.28133      8.39607         0.108749      0.041607     -0.025026
Mn	      6.46827      4.32292     10.55794         0.058179     -0.044666     -0.044668
Cu	      4.25305      0.03290      4.23607         0.044353     -0.011258      0.051269
Cu	      4.26843      6.38259      6.40303         0.082203      0.024152      0.009141
O	      2.11956      2.14210      1.95005         0.021196      0.013944     -0.200978
O	      4.18825      4.29343      2.29837         0.069044     -0.017436      0.336093
O	      4.28851      2.29221      4.24446        -0.071610      0.159899      0.040841
O	      6.22048      4.20914      4.32212        -0.251154      0.032347     -0.011426
O	      6.64453      2.03780      6.33476         0.077443      0.007422      0.017968
O	      8.54750      4.06105      6.30321         0.012197     -0.171390      0.001463
O	      2.24261      4.29109      4.44101         0.064672     -0.015166      0.158297
O	      4.33356      6.27072      4.16940        -0.009049     -0.025532     -0.076488
O	      4.11197      4.16457      6.41943        -0.105644     -0.073875      0.017398
O	      6.32638      6.56729      6.38495         0.090487      0.161839      0.012234
O	      6.27237      4.21712      8.40521        -0.132615      0.009561     -0.064150
O	      8.60084      6.51977      8.39808         0.036824      0.091411     -0.010742
O	      2.21961      6.42197      6.37523        -0.061482      0.078942     -0.027228
O	      4.32774      8.64748      6.39345         0.061155      0.131297      0.048152
O	      4.26822      6.22058      8.54479         0.001911     -0.080793      0.027059
O	      6.53325      8.53063      8.41129         0.042371      0.000489     -0.129482
O	      6.41803      6.40024     10.54238         0.101586      0.045809     -0.003421
O	      8.52161      8.40837     10.50773        -0.068110     -0.102775     -0.029398
