# total energy = -256.28282160 eV
 
CRYSTAL
PRIMVEC
-0.023172 6.393900 6.310847 
6.400404 -0.001898 6.290048 
4.265788 4.247372 -0.000265 
PRIMCOORD
36 1
Li	      6.38713      4.28384      2.14181        -0.035389      0.015271      0.023541
Li	      4.24298      2.12031      2.15745         0.013819      0.005445      0.013029
Li	      6.38676      8.50481     10.39589        -0.003646      0.024688     -0.054300
Li	      6.32155      2.22868      8.34995         0.034621     -0.030620     -0.087956
Li	      2.16345      2.09425      4.13474        -0.005026      0.032685      0.019270
Li	      8.55953      6.39893      6.37062         0.007752      0.005084     -0.028499
Li	      6.31587      4.26105      6.38007        -0.021771      0.006056     -0.009815
Li	      8.61816      8.35581      8.40190        -0.010065      0.004024     -0.052338
Li	      6.45876      6.37357      8.37650         0.013863      0.039872     -0.079463
Sc	      2.13217      2.09691      0.05156        -0.077843      0.069079     -0.018509
Sc	      8.42023      4.31265      8.47656         0.061406     -0.068842      0.003782
Ti	      6.39273      0.08323      6.34558        -0.046305      0.243985      0.208854
Ti	      4.13784      0.08078      4.02543        -0.295873      0.122149     -0.044939
Ti	      6.35826      8.49614      6.45427         0.044115     -0.114172      0.482581
Ti	      4.33708      6.33426      6.37901         0.231152     -0.119989      0.044577
Mn	      4.38633      4.13478      4.14741         0.048177     -0.049030      0.004927
Fe	      8.48799      6.45092     10.40118         0.024680      0.037633     -0.036316
Co	      6.36571      4.25595     10.37949         0.098451     -0.075963     -0.079933
O	      2.11620      2.20426      2.04087         0.012400     -0.038150      0.038053
O	      4.23865      4.21167      1.96059         0.007527      0.021299     -0.165475
O	      4.30322      1.95661      4.18476        -0.000130     -0.214947     -0.024085
O	      6.54484      4.24651      4.19698         0.253157      0.063347     -0.040790
O	      6.45114      1.96576      6.26927         0.005176     -0.262697     -0.011904
O	      8.66125      4.22059      6.23986         0.084440      0.012451     -0.000429
O	      2.16532      4.25386      4.28575        -0.035728     -0.073392      0.023826
O	      4.16263      6.40832      4.42207         0.038579      0.233601      0.102004
O	      4.18021      4.36769      6.31297        -0.052985      0.134899      0.043227
O	      6.24754      6.46726      6.31980        -0.189098      0.059855      0.031238
O	      6.41178      4.25023      8.38516        -0.106736      0.067132      0.166057
O	      8.51874      6.34900      8.36160        -0.016948     -0.007924     -0.068620
O	      2.08961      6.35685      6.33813        -0.016482     -0.023698      0.067542
O	      4.29204      8.48204      6.29861        -0.003320      0.057720     -0.064309
O	      4.21535      6.43529      8.39686         0.005699     -0.008419      0.043901
O	      6.35484      8.52865      8.25220         0.013783     -0.035227     -0.446306
O	      6.35407      6.34150     10.63231        -0.063727     -0.176507      0.008236
O	      8.50869      8.68051     10.50270        -0.017725      0.043305     -0.010659
