# total energy = -254.28860195 eV
 
CRYSTAL
PRIMVEC
0.028381 6.370086 6.325811 
6.442917 0.025519 6.328323 
4.332047 4.284336 -0.018702 
PRIMCOORD
36 1
Li	      6.37639      6.43297     12.50992        -0.059259      0.026942     -0.021896
Li	      4.50080      6.39737     10.54011         0.045374      0.023077     -0.009831
Li	      6.39626      2.07999      4.23711        -0.006405     -0.021443     -0.005883
Li	      6.56104      6.41237      4.26707         0.015461     -0.001716      0.028328
Li	      8.48185      6.39442      6.33958        -0.083341     -0.009645      0.043163
Li	      6.36847      4.42881     10.47739        -0.034114      0.017792     -0.043092
Li	      6.56522      8.45400      6.32426         0.030644     -0.047584      0.024563
Li	      4.33653      4.25748      8.42184         0.000176     -0.002730     -0.008123
Li	      6.44434      6.35555      8.48688        -0.026007      0.018240     -0.006487
Sc	      6.43927      2.20236      8.44318        -0.043900      0.006576      0.011740
Sc	      8.44890      6.40463     10.53236        -0.082487      0.021860     -0.078968
Ti	      8.61903      8.64671     12.51350        -0.094004      0.227478     -0.257022
Ti	      4.47272      8.46899      8.43415         0.491126     -0.123354      0.032225
Ti	      4.34936      4.20288      4.31752         0.020398     -0.098078      0.120444
Ti	      4.46189      6.41893      6.30399         0.388264     -0.022420      0.018825
Mn	      8.55511      4.33232      8.42805        -0.006680      0.035995      0.018189
Fe	      6.55033     10.61808      8.45771         0.000743      0.012585      0.061339
Ni	      6.46399      4.28737      6.30816         0.051582      0.027379     -0.036934
O	      2.21883      2.10803      2.00197         0.008785      0.143212     -0.073326
O	      4.32975      4.21302      2.18487        -0.052399     -0.037746     -0.007672
O	      4.28207      2.23383      4.10775        -0.023280      0.123108     -0.067519
O	      6.29001      4.26775      4.22749        -0.223769     -0.000260     -0.094603
O	      6.64520      2.15280      6.36570         0.209711     -0.047964     -0.014602
O	      8.60227      4.19401      6.26794         0.018738     -0.225776     -0.055022
O	      2.35373      4.30200      4.26703         0.103595      0.014032      0.054685
O	      4.32499      6.31604      4.23649        -0.033089     -0.026094      0.042676
O	      4.33243      4.32662      6.28090        -0.013988      0.032005     -0.106889
O	      6.34168      6.38262      6.29969        -0.317560      0.022783     -0.029487
O	      6.44781      4.22309      8.39793        -0.013304     -0.051740      0.053368
O	      8.71275      6.45579      8.44062         0.072421     -0.007715      0.028683
O	      2.34460      6.52928      6.30624         0.028273      0.027089      0.070304
O	      4.23898      8.47567      6.40350        -0.087444      0.004149      0.015082
O	      4.33829      6.49407      8.36444         0.049584      0.142676     -0.038116
O	      6.32673      8.53687      8.38981        -0.444490     -0.169807     -0.022080
O	      6.50596      6.38523     10.55096         0.092750     -0.011216      0.021318
O	      8.65213      8.52154     10.64763         0.017894     -0.021690      0.332619
