# total energy = -93.15086964 eV
 
CRYSTAL
PRIMVEC
-2.071285 4.250274 -2.072646 
1.977806 4.155868 1.977177 
2.035266 0.048889 -6.085998 
PRIMCOORD
16 1
Li	      1.94137      6.29790     -4.09789         0.052778      0.047427     -0.052790
Li	      1.97120      4.23161     -6.09175         0.046233     -0.001814     -0.134505
Li	     -0.01374      2.11427     -2.05424        -0.038306     -0.027399      0.054472
Li	      1.98382      4.18411     -2.08102        -0.004536      0.009448      0.127314
Mn	      3.96291      4.18409     -4.05749         0.425490      0.005564     -0.177569
Mn	     -0.03756      6.29722     -2.12129        -0.139642      0.261412      0.060598
Ni	      0.00141      4.23008     -4.12782        -0.154523     -0.080898     -0.089464
Ni	      1.95607      2.11604     -4.01815         0.034757     -0.224624     -0.059971
O	     -0.02792      4.31924     -6.18583        -0.088054     -0.126943     -0.327749
O	      1.86404      6.34071     -2.08755         0.077563     -0.111417      0.040098
O	      2.06130      4.14051     -4.09122         0.106366      0.220108      0.002317
O	      1.97062      3.99169      0.03538        -0.071617     -0.018925      0.195256
O	     -0.07559      6.25590     -4.02249         0.013881      0.261120     -0.102052
O	     -0.07034      6.44099     -0.15857        -0.000220      0.095182      0.216212
O	     -0.12895      4.37446     -2.07067        -0.132525     -0.185772      0.196068
O	      0.06128      1.92312     -0.01978        -0.127645     -0.122468      0.051766
