# total energy = -259.11159804 eV
 
CRYSTAL
PRIMVEC
0.079515 6.391229 6.351512 
6.380770 0.011157 6.419148 
4.256027 4.308045 0.005169 
PRIMCOORD
36 1
Li	      8.50586      4.32043      4.28928        -0.022033      0.033445     -0.009105
Li	     10.57541      6.40589      8.58172        -0.105309     -0.054376      0.027959
Li	      2.20032      4.32992      2.12659         0.033884      0.002994      0.040077
Li	      6.40359      6.46450      4.34964         0.010173      0.041466      0.091578
Li	      8.46730      6.50360      6.42093        -0.030417      0.119815     -0.003934
Li	      2.24149      6.37510      4.20154         0.028114     -0.038510     -0.014133
Li	      2.29036      4.23022      6.32703         0.107382     -0.037274     -0.009909
Li	      4.30906      6.36981      6.36111         0.025029     -0.038473     -0.026715
Li	      4.31264      4.23560      8.44666        -0.045845     -0.076970     -0.094507
Sc	      4.22659      2.14559      2.18384        -0.013563      0.067815      0.059084
Sc	      6.48294      8.53164     10.63369        -0.093767      0.019673     -0.102674
Ti	      2.21262      8.50226      6.34759         0.050993     -0.274450      0.184137
Ti	      6.35420      4.39205      6.42557        -0.307452      0.199855     -0.029495
Ti	      0.15812      4.13662      4.15449         0.413028     -0.382360     -0.009611
Ti	      6.54437      6.34558      8.50657         0.444645      0.056347     -0.125270
Mn	     10.55292      4.36028      6.44212        -0.014881      0.027487      0.022460
Mn	      2.26911      6.37941      8.51733         0.011461      0.019863      0.002874
Co	      4.20695      4.37083      4.28637        -0.005313      0.018450      0.024773
O	      2.18472      2.15671      1.96005         0.002491      0.035422     -0.198162
O	      4.25985      4.26881      2.17674        -0.003610      0.019743     -0.015149
O	      4.32860      2.20584      4.23249         0.044507      0.007049     -0.022798
O	      6.40389      4.27034      4.39577         0.029052      0.000333      0.101235
O	      6.48368      2.23561      6.37510         0.110939      0.097627      0.031389
O	      8.37827      4.17145      6.42678        -0.076422     -0.110836     -0.007787
O	      2.01992      4.26367      4.28304        -0.338100      0.010378     -0.050717
O	      4.30695      6.55505      4.19985         0.000774      0.327155      0.039264
O	      4.43398      4.30194      6.36289         0.275905      0.021312      0.003164
O	      6.44552      6.33516      6.47059        -0.047602     -0.197072      0.072848
O	      6.38188      4.30635      8.55347         0.005977      0.062318     -0.010081
O	      8.39313      6.42295      8.50443        -0.451181     -0.074268      0.040928
O	      2.16243      6.57683      6.35384         0.048081      0.249819     -0.065607
O	      4.20966      8.56914      6.27582        -0.173440     -0.066949     -0.017127
O	      4.42909      6.46515      8.51248         0.091613      0.015766     -0.001892
O	      6.43947      8.47265      8.52143         0.021153     -0.087401      0.005635
O	      6.42781      6.38059     10.58098        -0.041224     -0.036580     -0.050240
O	      8.63814      8.57306     10.76058         0.014960      0.021386      0.117511
