# total energy = -255.54466365 eV
 
CRYSTAL
PRIMVEC
-0.015494 6.440653 6.405818 
6.490336 -0.012923 6.403307 
4.309996 4.275358 0.007886 
PRIMCOORD
36 1
Li	      0.25132      6.26731      6.34270        -0.053641      0.041444     -0.002960
Li	      2.23980      8.37951      6.46298         0.023758      0.043744      0.076295
Li	      2.07620      6.35681      8.30698         0.002040     -0.001319      0.065959
Li	      4.40783      8.67878      8.37114         0.008444      0.040448      0.016162
Li	      6.47823      8.48092     10.64167        -0.034808     -0.024076      0.020815
Li	      4.33468      4.23158      4.18997         0.036721     -0.050492     -0.059705
Li	      1.97574      6.46050      4.49229        -0.026461      0.045657     -0.029472
Li	      6.25207      8.81069      6.47737         0.022566     -0.081227     -0.014942
Li	      6.43995      6.47003      8.61181        -0.022170      0.004072     -0.014981
Sc	      4.46377      6.41305     10.68613        -0.007519      0.072356      0.009496
Sc	      2.17654      2.15790      4.23600         0.081018     -0.022154      0.002465
Ti	      4.27274      6.34645      2.16148         0.076744     -0.160778      0.033825
Ti	      2.23281      4.36172      2.16395         0.152386     -0.016691      0.128910
Ti	      6.47025      4.26761      6.42040        -0.032029      0.014036     -0.205964
Ti	      8.43075      8.57941      8.62027        -0.647992      0.089211      0.057837
Mn	      4.30488      2.20116      6.33184        -0.036750      0.008710     -0.035512
Mn	      4.16563      6.53802      6.41538        -0.012780     -0.035754     -0.022715
Ni	      0.00599      4.35998      4.34393         0.009648     -0.014357     -0.039024
O	      2.01466      2.27937      2.16827        -0.038333      0.032534     -0.024631
O	      4.22654      4.36934      2.11547        -0.081293      0.081913      0.017006
O	      4.25918      2.07679      4.22206         0.007434      0.006227     -0.065739
O	      6.51341      4.28827      4.49241        -0.009812     -0.014415      0.161642
O	      6.46361      2.30054      6.56412         0.030851      0.116683      0.035606
O	      8.48352      4.29660      6.51590        -0.099305     -0.051709     -0.001223
O	      2.13684      4.26143      4.08175         0.075325     -0.026096     -0.105239
O	      4.36580      6.46014      4.10278         0.066510     -0.069650     -0.116350
O	      4.49210      4.28422      6.60237         0.142592      0.024017      0.018543
O	      6.44633      6.25071      6.36821        -0.001726     -0.090619      0.039478
O	      6.55031      4.22201      8.47856        -0.029248      0.010519      0.006767
O	      8.70313      6.42737      8.53747         0.048977      0.035031      0.094477
O	      2.14392      6.43416      6.41578        -0.033866     -0.000718     -0.057568
O	      4.32277      8.58719      6.37358        -0.033147      0.059556      0.065172
O	      4.30106      6.21529      8.62287         0.020988     -0.161597      0.052531
O	      6.61856      8.51179      8.54881         0.534906      0.023700      0.012556
O	      6.42846      6.40783     10.69651        -0.018637      0.076395      0.008926
O	      8.69523      8.56876     10.51870        -0.121393     -0.004602     -0.128445
