# total energy = -261.83930864 eV
 
CRYSTAL
PRIMVEC
0.037410 6.431630 6.375455 
6.445365 0.030359 6.382694 
4.323978 4.319602 -0.006823 
PRIMCOORD
36 1
Li	      4.34540      4.29689      0.08316        -0.008971     -0.007737      0.007341
Li	      2.18477      2.12598      0.05772        -0.004299     -0.001516     -0.006312
Li	      6.37392      4.38090      2.08793        -0.110754      0.063789     -0.005111
Li	      4.32029      8.66148      8.37653        -0.043393      0.034120      0.049843
Li	      6.47641      2.16796      8.28510         0.041510     -0.020256      0.018936
Li	      4.44323      2.21553      6.44734        -0.016101      0.019803     -0.026197
Li	      6.41905      4.19989      6.49292        -0.031834      0.015058     -0.018817
Li	      4.29340      8.65145      4.34720         0.001122      0.002818      0.030363
Li	      4.35576      4.28059      8.50178        -0.009390      0.034689      0.014263
Sc	      6.44377      2.19286      4.37214        -0.034340      0.009015     -0.053215
Sc	      6.47675      6.46265      4.24689        -0.013621     -0.066953     -0.050809
Ti	      2.25734      6.49777      4.26366        -0.018566      0.110556      0.154072
Ti	      8.63340      4.26748      8.31430        -0.064072     -0.156113     -0.453813
Ti	      4.28289      4.33836      4.26061         0.093597     -0.028328      0.156386
Ti	      6.46625      6.44082      8.43836        -0.197046     -0.019136     -0.062623
Mn	      8.70631     10.67750     10.72833        -0.011456      0.024253     -0.008422
Mn	      6.39580      8.67757      6.46933         0.021805      0.053149      0.055449
Mn	      4.26856      6.56515      6.47686        -0.043754     -0.082956      0.089726
O	      2.13508      2.31176      2.18643         0.027540      0.225495      0.027875
O	      4.16684      4.33296      2.24043        -0.132627     -0.002665      0.056898
O	      4.27483      2.23654      4.26062         0.006792      0.059779     -0.023354
O	      6.38818      4.34792      4.14380        -0.039517      0.019495      0.038776
O	      6.43167      2.20593      6.32281         0.029565     -0.021367     -0.013414
O	      8.65024      4.33285      6.47605         0.001212      0.006622      0.438878
O	      2.21765      4.31739      4.16995         0.063661      0.041484     -0.118895
O	      4.30304      6.42648      4.18794        -0.098733     -0.031843      0.006731
O	      4.28235      4.36883      6.17876         0.003796     -0.031577     -0.218795
O	      6.51028      6.45507      6.44610         0.033818     -0.017915      0.078845
O	      6.65410      4.46938      8.48580         0.145334      0.078385      0.008896
O	      8.56289      6.34719      8.60612        -0.049692     -0.015386      0.072589
O	      2.15271      6.45961      6.19158        -0.032422     -0.003938     -0.217878
O	      4.32140      8.62212      6.37397         0.076710      0.025727     -0.006189
O	      4.55348      6.35824      8.58623         0.248405      0.029428      0.008687
O	      6.55315      8.41489      8.54986        -0.008753     -0.169362      0.008243
O	      6.60401      6.49592     10.51346         0.109320     -0.025856     -0.043612
O	      8.61955      8.48214     10.58542         0.065155     -0.150762      0.004659
