# total energy = -252.84135305 eV
 
CRYSTAL
PRIMVEC
-0.012047 6.297789 6.304541 
6.355314 -0.031019 6.324028 
4.215129 4.189741 0.000914 
PRIMCOORD
36 1
Li	      2.17605      8.33108      6.37056         0.038189     -0.073793      0.043891
Li	      4.18409      2.07297      2.13514        -0.027325      0.025049      0.003000
Li	      6.31082      8.38158     10.35933        -0.063759      0.079350     -0.063661
Li	      2.14255      4.11321      2.18428         0.044713     -0.035699      0.049920
Li	      2.13909      2.10236      4.13500         0.001524     -0.033877      0.015612
Li	      4.24018      4.13521      4.17114         0.071909     -0.017673     -0.016304
Li	      4.21552      6.28643      6.41823        -0.019396      0.020042      0.039403
Li	      8.38078      8.39284      8.43697        -0.032800      0.047644     -0.023817
Li	      6.30753      6.35449      8.42336        -0.026085      0.036671      0.004845
Sc	      4.19336      6.27141     10.36572        -0.282148      0.019592     -0.218078
Sc	      6.37252      8.35605      6.39867        -0.017785      0.136353      0.009283
Ti	     10.53059      4.22768      6.36350         0.284689     -0.135776      0.172644
Ti	      8.48937      6.23526      6.33674        -0.098879      0.110654     -0.097540
Ti	      6.30803      4.19644      6.32191        -0.064863      0.030563     -0.261705
Ti	      4.22102      8.30511      4.17276         0.060650     -0.287204      0.031416
V	      0.06130      2.11087      2.10478         0.011976     -0.176076      0.130476
Co	      2.13351      6.29440      8.40978        -0.242088      0.074149     -0.028477
Ni	      8.42048      6.30038     10.46239         0.093735     -0.033624     -0.027095
O	      2.00620      2.02952      2.15075         0.218107     -0.375172     -0.033338
O	      4.18764      4.23475      1.98942         0.296804     -0.020674     -0.049076
O	      4.24608      2.04376      4.40128        -0.014098     -0.023178      0.239904
O	      6.35964      4.14749      4.40394         0.002920      0.050314      0.339180
O	      6.37569      2.08432      6.33734        -0.113951     -0.050426      0.053017
O	      8.44422      4.15512      6.31485         0.069632      0.105150      0.016358
O	      1.96120      4.24626      4.21733        -0.196850     -0.199285      0.018403
O	      4.16001      6.37376      4.18971         0.119817      0.236999     -0.037565
O	      4.28362      4.15080      6.31887         0.111069     -0.068114      0.054061
O	      6.39449      6.21860      6.38429         0.074710     -0.036413      0.003643
O	      6.38319      4.11521      8.41375         0.024569     -0.000396      0.027802
O	      8.56684      6.25590      8.34249        -0.032062      0.029335     -0.225669
O	      1.96063      6.28453      6.22770        -0.141922     -0.003652     -0.009535
O	      4.22887      8.48149      6.18093         0.026523      0.074146     -0.093210
O	      4.18070      6.33189      8.40085        -0.259573     -0.021950      0.012622
O	      6.31115      8.44064      8.39801         0.073080      0.331665     -0.060992
O	      6.31508      6.21778     10.58730        -0.119317     -0.013091      0.005255
O	      8.59929      8.36127     10.48262         0.128285      0.198395     -0.024673
