# total energy = -256.63713524 eV
 
CRYSTAL
PRIMVEC
0.023411 6.448032 6.244007 
6.388927 0.036157 6.231165 
4.276645 4.307841 0.007108 
PRIMCOORD
36 1
Li	      2.23684      6.49969      8.34976         0.106981      0.061423     -0.001827
Li	      4.25471      8.55576      8.31474        -0.046521     -0.045313      0.005831
Li	      8.51863     10.69348     10.41851        -0.083193     -0.040566      0.051167
Li	      6.45558      8.67350     10.36821         0.029485      0.005032     -0.032015
Li	      6.47257      2.25848      8.25592         0.056380      0.045628     -0.036998
Li	      8.47514      4.28381      8.25744        -0.020619     -0.014041     -0.025332
Li	      6.47729      4.23136      6.26826         0.038646     -0.042449     -0.035521
Li	      6.35452      4.36849     10.37181        -0.022431      0.027976      0.037760
Li	      4.28944      4.38763      8.34440        -0.011902      0.039873     -0.014753
Sc	      2.08817      2.17209      4.03469        -0.044739     -0.023604      0.102920
Sc	      4.38673      2.13080      6.29900         0.018201     -0.053089     -0.047659
Ti	      8.56236      6.61798     10.34322        -0.007371      0.320249     -0.056928
Ti	      4.33214      4.26912      3.99085         0.173883     -0.060930     -0.276701
Ti	      6.36206      8.67509      6.38477        -0.041320      0.057962      0.299957
Ti	      6.25343      6.32658      8.36957        -0.401406     -0.293604     -0.033592
V	      4.31430     10.73505      6.28131        -0.041531      0.073207      0.007673
Co	      8.48950      2.29000      6.31033        -0.004315      0.002945      0.021303
Co	      4.29670      6.42330      6.27018         0.109795     -0.012930      0.078660
O	      2.14089      2.17522      2.08091        -0.014536     -0.015311     -0.061981
O	      4.27036      4.28277      2.14880         0.017523     -0.005622      0.417674
O	      4.19944      2.31731      4.18378        -0.030198      0.127447     -0.076512
O	      6.24059      4.40550      4.17483        -0.241708     -0.038296     -0.029228
O	      6.39254      2.15656      6.25859         0.084417      0.071150     -0.048098
O	      8.57031      4.38289      6.19777        -0.062789     -0.001976     -0.029172
O	      2.22732      4.34997      4.22943         0.056016      0.017811     -0.003083
O	      4.20022      6.34904      4.09268        -0.083548     -0.049814     -0.112509
O	      4.14010      4.25412      6.14676        -0.091805     -0.054828     -0.005257
O	      6.46516      6.58881      6.30410         0.091735      0.065005      0.042802
O	      6.38734      4.50177      8.30196        -0.034257      0.304078      0.002068
O	      8.45690      6.50318      8.41235        -0.015338      0.010106      0.149755
O	      2.14337      6.34741      6.18483         0.028192     -0.086444     -0.019997
O	      4.40508      8.62117      6.20856         0.157272     -0.016306      0.040097
O	      4.39152      6.46165      8.42153         0.239812     -0.034928      0.118106
O	      6.43462      8.53817      8.23039        -0.024541     -0.016332     -0.224231
O	      6.54689      6.47432     10.33263         0.083395     -0.026454     -0.188556
O	      8.57859      8.46109     10.47783         0.032336     -0.297054     -0.015824
