# total energy = -251.90893575 eV
 
CRYSTAL
PRIMVEC
0.014929 6.277874 6.508802 
6.295764 -0.010689 6.534936 
4.196755 4.201906 -0.007522 
PRIMCOORD
36 1
Li	      6.28272      4.20029      2.34856         0.004317     -0.019474      0.042857
Li	      6.24257      2.18800      4.35384        -0.010850      0.000702     -0.002797
Li	      2.10103      4.18513      2.17235         0.007930      0.007164     -0.024021
Li	      6.22751      6.15975      4.34217        -0.000703      0.024315     -0.022767
Li	      4.37901      4.18178      4.48711        -0.079430     -0.028395      0.031199
Li	      4.26337      2.21185      6.51102         0.012661     -0.043522      0.008382
Li	      6.10014      4.22861      6.40811         0.101612      0.006157      0.008022
Li	      4.27543      6.17471      6.50424        -0.014967      0.041491      0.025134
Li	      4.21290      4.18551      8.50888        -0.015819      0.026481     -0.053098
Sc	      8.28788      4.20030      4.36246        -0.030855      0.034448      0.075394
Sc	      2.21071      4.15568      6.48918        -0.014111     -0.047793     -0.026355
Ti	      8.32280      2.10914      6.57154        -0.177358      0.138199      0.025714
Ti	      4.21123      2.26140      2.26275         0.003612      0.216947      0.128179
Ti	      2.21052      6.26762      4.27047         0.234855     -0.090789     -0.070631
Ti	      6.28930      6.11449      8.63275         0.009253     -0.251677     -0.157299
V	     10.49444      6.29128      8.70468         0.005523     -0.027747     -0.052496
Cu	      0.08782      4.11138      4.28989         0.067407     -0.122227     -0.114251
Ni	      6.30919      6.24983     12.99810        -0.026758      0.047389      0.031911
O	      2.15622      2.07883      2.03593         0.116684     -0.019303     -0.047234
O	      4.19764      4.14344      2.09905        -0.006741     -0.324381      0.063557
O	      4.14050      2.09545      4.15346         0.004772     -0.014251     -0.177769
O	      6.33904      4.19914      4.33613         0.025675     -0.023885      0.030155
O	      6.39085      2.02454      6.60337         0.148645      0.124109     -0.084055
O	      8.47043      4.03434      6.46379        -0.158278     -0.132308      0.002667
O	      2.12606      4.36399      4.40185        -0.019128      0.112581     -0.022908
O	      4.11271      6.26111      4.30239        -0.110509     -0.016750      0.055917
O	      4.15392      4.17639      6.54403        -0.010323      0.019829     -0.040101
O	      6.33739      6.29749      6.72279        -0.008633     -0.001932      0.168192
O	      6.30367      4.25319      8.62394        -0.007098      0.358406     -0.007134
O	      8.33088      6.31397      8.84423        -0.124711      0.007726      0.086758
O	      2.07212      6.33363      6.34821         0.116653      0.022280     -0.052403
O	      4.13051      8.35884      6.71373        -0.047504     -0.106719      0.118021
O	      4.34386      6.32101      8.76982         0.069733      0.016623      0.005109
O	      6.16575      8.34561      8.61490        -0.065123     -0.030094     -0.003867
O	      6.36023      6.38408     10.75542         0.006244      0.072027     -0.020950
O	      8.36550      8.32519     11.08691        -0.006677      0.024372      0.072967
