# total energy = -93.18324034 eV
 
CRYSTAL
PRIMVEC
-2.092102 4.292990 -2.093476 
1.997683 4.197636 1.997048 
2.055721 0.049380 -6.147164 
PRIMCOORD
16 1
Li	      1.98059      6.42513     -4.18067        -0.028640     -0.041342      0.022302
Li	     -0.04470      4.26771     -0.06765        -0.026780      0.000926      0.077385
Li	     -0.01402      2.15698     -2.09574         0.017972      0.028939     -0.003711
Li	      2.02389      4.26863     -2.12306        -0.011854     -0.015598     -0.099021
Mn	      2.04528      0.07098     -6.13651        -0.426641     -0.021262      0.198488
Mn	     -0.03832      6.42443     -2.16414         0.143564     -0.229792     -0.063379
Ni	      0.00144      4.31554     -4.21122         0.188846      0.074340      0.037892
Ni	      1.99558      2.15879     -4.09932        -0.080342      0.205239      0.106518
O	     -0.02849      4.40649     -6.31079         0.062624     -0.112056      0.065197
O	      1.90170      6.46880     -2.12971        -0.305936     -0.145811     -0.010321
O	      2.10294      4.22416     -4.17387         0.140132      0.048758     -0.029161
O	      2.01043      4.07233      0.03609        -0.077425      0.008389     -0.158581
O	     -0.07712      6.38227     -4.10375         0.004942     -0.005867      0.327704
O	     -0.07177      6.57111     -0.16177         0.151999     -0.079161     -0.238705
O	     -0.13155      4.46283     -2.11250         0.068577      0.179596      0.012495
O	      0.06252      1.96197     -0.02018         0.178961      0.104702     -0.245102
