# total energy = -254.92638963 eV
 
CRYSTAL
PRIMVEC
-0.024298 6.429082 6.379036 
6.339438 -0.006200 6.360652 
4.248850 4.296626 -0.026875 
PRIMCOORD
36 1
Li	      4.25055      4.30060      0.01702        -0.026830     -0.011099     -0.038899
Li	      6.23933      2.24905      8.47984         0.031033      0.049185     -0.016372
Li	      6.24564      6.53580      4.42197         0.009728     -0.007467      0.044133
Li	      8.35521      6.51153      6.49098         0.017757     -0.014358     -0.055358
Li	      6.28940      4.38465      6.44782         0.038171      0.044176     -0.016761
Li	      0.07362      4.18343      4.19719         0.025770     -0.020346     -0.008611
Li	      2.17413      4.15398      6.31257        -0.022057     -0.000889     -0.009344
Li	      4.32490      6.39994      6.35078        -0.031535     -0.002334     -0.029477
Li	      4.34172      4.20614      8.28291         0.036802     -0.001085     -0.014789
Sc	      8.42820      4.30287      4.23921        -0.031640     -0.037994      0.017589
Sc	      8.47226      6.39764     10.52524         0.018357      0.040768      0.036932
Ti	      2.09075      2.10700      0.08828        -0.020189     -0.133105     -0.045980
Ti	      4.25628      8.59706      8.35976         0.004880      0.155325     -0.154146
Ti	      6.31052      2.17665      4.32546         0.036813     -0.036417      0.056552
Ti	      4.24582      4.32662      4.40357         0.007000      0.145675      0.137453
V	      6.33642      6.39351      8.34717         0.197649     -0.182954      0.080126
Fe	      8.39505      4.30791      8.42294        -0.084336      0.207004      0.043792
Cu	      2.05023      6.37938      8.31064        -0.064882     -0.071120     -0.249439
O	      2.22748      2.17012      2.01702         0.042907      0.012315     -0.076339
O	      4.16976      4.09914      2.22735         0.100055     -0.124542     -0.010797
O	      4.27901      2.16946      4.18760         0.011741     -0.038979     -0.011325
O	      6.29984      4.18946      4.27332        -0.056741      0.012584      0.077189
O	      6.44750      2.10531      6.26244         0.067457      0.016532     -0.090063
O	      8.50105      4.11548      6.26975        -0.018199     -0.047987      0.002751
O	      2.24056      4.32098      4.28563         0.030220      0.033345      0.035032
O	      4.22366      6.25876      4.18610        -0.011260     -0.097747      0.030003
O	      4.24176      4.27198      6.22449        -0.026959     -0.023376     -0.176556
O	      6.34456      6.45520      6.44156        -0.002300      0.009890      0.021682
O	      6.37220      4.40794      8.53588        -0.208714     -0.073943     -0.055452
O	      8.44708      6.47882      8.46409         0.033277      0.107433      0.035614
O	      2.09695      6.62404      6.23988         0.016323      0.047523      0.079390
O	      4.13605      8.59251      6.47228        -0.041168      0.010589      0.218951
O	      4.24168      6.58749      8.53666        -0.028528      0.029212     -0.005577
O	      6.23387      8.47226      8.60671        -0.027955     -0.018289      0.099811
O	      6.30551      6.54245     10.53958         0.013318      0.023465     -0.016695
O	      8.36314      8.59864     10.67134        -0.035966     -0.000991      0.064980
