# total energy = -252.63255755 eV
 
CRYSTAL
PRIMVEC
0.032431 6.412938 6.415523 
6.355256 0.016278 6.432457 
4.224982 4.274573 0.022647 
PRIMCOORD
36 1
Li	      8.48194      8.54341     12.65341        -0.016670     -0.019588     -0.094058
Li	      6.41594     10.60972      8.64394         0.014129     -0.050900      0.069966
Li	      4.37630      6.32436     10.62909        -0.036703     -0.008126     -0.039705
Li	      6.47949      8.43335     10.67018        -0.017746      0.021766     -0.039458
Li	      4.25216      4.26425      4.25943         0.009320      0.010051     -0.017700
Li	      6.31181      4.45385     10.72281         0.011792     -0.009831     -0.040012
Li	      8.31966      6.50144     10.74632         0.034893     -0.006224     -0.022476
Li	      2.06467      4.36571      6.40144         0.009630     -0.015514     -0.023400
Li	      6.34672      6.47917      8.83733        -0.010374      0.068775      0.019541
Sc	      4.28218      6.36922      2.24555        -0.017359      0.024585      0.024216
Sc	      4.22404      2.17632      6.35029        -0.053022      0.064434     -0.062194
Sc	      4.10975      6.48711      6.40342        -0.010982     -0.011909     -0.046045
Mn	      8.39952      8.63374      8.70172        -0.013624     -0.157934     -0.097358
V	      4.37725      8.53404      8.62014        -0.015391     -0.126255     -0.001127
V	      2.10979      4.29222      2.24838         0.026766      0.096030      0.055243
V	      6.41162      4.25614      6.35375        -0.049912      0.042881     -0.036269
Cr	      0.09610      6.36565      6.32115         0.014130      0.010285      0.028073
Cr	      2.14185      2.13557      4.27761         0.018656      0.002504      0.115309
O	      2.18751      2.17101      2.26360        -0.042815      0.008906     -0.052647
O	      4.17032      4.25930      2.06296        -0.008897      0.004226      0.006413
O	      4.17499      2.17850      4.25660        -0.065987      0.010063      0.086091
O	      6.33356      4.38863      4.45351         0.025430      0.027367     -0.095011
O	      6.34439      2.10133      6.47986        -0.000404     -0.016693     -0.068418
O	      8.47270      4.32576      6.54804         0.042620      0.039011     -0.040879
O	      2.14828      4.16200      4.15972        -0.028889     -0.053571      0.039790
O	      4.33786      6.37095      4.29577         0.032166      0.017473      0.029820
O	      4.33368      4.29692      6.59886         0.009356     -0.023259      0.010885
O	      6.35622      6.37691      6.31671         0.036697     -0.019927     -0.004634
O	      6.44841      4.21836      8.44749         0.041581     -0.015438      0.055877
O	      8.52709      6.43257      8.52142         0.022187      0.089361      0.029764
O	      2.09274      6.42742      6.36737         0.000801      0.003767      0.022784
O	      4.23583      8.59764      6.56300        -0.038428      0.036901     -0.021628
O	      4.26586      6.40878      8.48451         0.021508      0.055058      0.135779
O	      6.30769      8.56571      8.60343         0.036330     -0.071962      0.022982
O	      6.36207      6.40883     10.84680        -0.022585     -0.024646     -0.023250
O	      8.48789      8.57927     10.52828         0.041798     -0.001669      0.073734
