# total energy = -248.17929678 eV
 
CRYSTAL
PRIMVEC
0.022861 6.263980 6.551394 
6.368218 0.032294 6.542344 
4.274907 4.198917 -0.008081 
PRIMCOORD
36 1
Li	      2.12709      2.09597      0.19276        -0.023448      0.009284      0.032529
Li	      6.28981      4.39426      2.25648         0.056884      0.004610      0.033039
Li	      0.23431      2.04623      2.32452         0.062187     -0.023994      0.015370
Li	      2.19122      4.07895      2.22981         0.060612     -0.002323      0.022268
Li	      2.11682      2.17998      4.09002         0.064100      0.042634     -0.029418
Li	      4.30700      4.18932      4.17715        -0.004394     -0.030539     -0.025532
Li	      6.41915      4.13752      6.60031         0.002540      0.020076     -0.004560
Li	      2.18592      4.14699      6.46683        -0.010654     -0.021189     -0.056756
Li	      4.29210      4.14456      8.68564        -0.031678      0.014038      0.011556
Sc	      4.31616      4.16909      0.17822         0.027895     -0.052558     -0.013055
Sc	      8.41132      4.27014      4.31330        -0.056971     -0.018896     -0.031358
Sc	      4.24996      6.17059      6.53732         0.007911      0.016093     -0.019571
Mn	      4.25242      2.19011      6.55023        -0.124344      0.031654      0.165280
V	      6.34950      2.20390      4.35590         0.065260     -0.004751     -0.000608
V	      4.32968      8.35014      4.37465        -0.074360     -0.003323     -0.035319
V	      2.19593      6.22458      4.32715        -0.125382      0.062965     -0.095095
V	      6.43025      6.26078      8.68679         0.055954      0.033412      0.153760
Co	      4.19049      2.11266      2.16442        -0.214722      0.164825      0.044670
O	      2.22122      2.13199      2.13390         0.011451     -0.102861     -0.018334
O	      4.28423      4.15639      2.12609         0.116029      0.052869     -0.015706
O	      4.28197      2.12458      4.39344        -0.016425      0.032170      0.144583
O	      6.41677      4.13273      4.29494         0.017141      0.005634      0.007246
O	      6.32563      2.10758      6.36276        -0.004031     -0.063532      0.014924
O	      8.56893      4.40510      6.43126         0.024911      0.093389     -0.021829
O	      2.00868      4.26910      4.35623         0.025054     -0.016130     -0.023617
O	      4.26634      6.29436      4.41020        -0.034505     -0.013045     -0.027414
O	      4.25892      4.12623      6.62175         0.017227     -0.149870      0.029800
O	      6.42623      6.28572      6.77886        -0.080709      0.003653     -0.074058
O	      6.35111      4.40133      8.88878        -0.027695      0.037500      0.008384
O	      8.36922      6.33054      8.82107         0.203378      0.031118     -0.049122
O	      2.16480      6.24812      6.39045        -0.048278     -0.015688     -0.032175
O	      4.28588      8.34066      6.39542         0.001269      0.059776     -0.078958
O	      4.33613      6.31647      8.70408         0.059407     -0.113124     -0.007702
O	      6.26135      8.18910      8.89104         0.075484     -0.152147      0.013400
O	      6.40234      6.33523     10.87286        -0.061600      0.026917     -0.002326
O	      8.55819      8.36418     10.88001        -0.015499      0.041354     -0.034296
