# total energy = -249.40189494 eV
 
CRYSTAL
PRIMVEC
0.030769 6.375320 6.453856 
6.480074 0.014201 6.470962 
4.316555 4.258375 0.012781 
PRIMCOORD
36 1
Li	      4.28275      2.13616      2.45652        -0.060776      0.016327     -0.071231
Li	      4.28498      0.23378      4.25796        -0.044935     -0.046870      0.008204
Li	      6.21798      2.18340      4.32426        -0.031987     -0.006922      0.020382
Li	      4.38040      6.32977      2.18609         0.028879     -0.059966      0.033868
Li	      2.41628      2.13998      4.26458        -0.040138      0.013391     -0.021104
Li	      4.35349      4.00592      4.37346         0.010234      0.121228      0.061543
Li	      4.25437      2.20941      6.22911        -0.036995     -0.015832      0.038245
Li	      2.32397      4.16011      6.41343         0.071897     -0.037827     -0.053054
Li	      4.34606      4.26128      8.57349         0.014859     -0.025124      0.017359
Sc	      6.47489      4.20337      6.33464         0.006401     -0.019317     -0.048836
Sc	      8.67484      6.38321     10.72600         0.031821      0.038872      0.033608
Sc	      4.35087      6.34055      6.49231         0.001736     -0.006716     -0.004704
Mn	      6.45091      4.25163      2.35183        -0.001896     -0.049265     -0.032832
V	      6.44367      0.05322      6.47322         0.038258      0.008381      0.095358
V	      8.62878      2.15908      6.48037        -0.014127     -0.020895      0.002695
V	      2.19877      4.22786      2.17074         0.008088     -0.025064     -0.050700
V	      6.44863      6.54172      8.61819         0.006825      0.141726     -0.003763
Fe	      6.48090      4.24146     10.72421         0.031417      0.012364     -0.021582
O	      2.14060      2.20509      2.02295         0.032740      0.013325     -0.039886
O	      4.22993      4.28134      1.98637         0.067545     -0.018989     -0.070680
O	      4.31573      2.14529      4.32480        -0.036847     -0.004869      0.037710
O	      6.49693      4.26537      4.37675        -0.039391      0.009053      0.093028
O	      6.61171      2.07039      6.44453         0.011313      0.017695     -0.019143
O	      8.65767      4.22554      6.56055        -0.009535      0.030759      0.016686
O	      2.05590      4.26851      4.25549         0.016700      0.018094     -0.058152
O	      4.26260      6.49687      4.36060        -0.037803     -0.059041      0.019332
O	      4.41440      4.32862      6.48634        -0.000089      0.003293     -0.018437
O	      6.43433      6.34857      6.65162         0.013586      0.016531      0.017962
O	      6.57606      4.40800      8.67207        -0.060154      0.009888     -0.007945
O	      8.51807      6.30861      8.68209        -0.035626     -0.010323      0.045064
O	      2.16348      6.38943      6.47627         0.030020      0.028884     -0.040758
O	      4.24755      8.59861      6.34930        -0.014929     -0.016162     -0.030661
O	      4.47496      6.37692      8.58039         0.037279      0.063092     -0.016612
O	      6.56437      8.31642      8.63541        -0.014834     -0.063914      0.056946
O	      6.52929      6.33633     10.76160         0.016194     -0.030609      0.004569
O	      8.78341      8.47261     10.87673         0.004271     -0.045198      0.007523
