# total energy = -245.84243793 eV
 
CRYSTAL
PRIMVEC
0.016611 6.318814 6.341794 
6.414688 -0.016265 6.375324 
4.269745 4.228018 -0.004317 
PRIMCOORD
36 1
Li	      2.13985      2.13233      0.04402        -0.003754      0.001915      0.008482
Li	      4.27789      8.37132      8.37057        -0.003867     -0.009883      0.064014
Li	      6.40074      2.23965      8.34510        -0.010407     -0.014564     -0.003616
Li	      8.31633      4.20341      8.40195        -0.111236     -0.010738     -0.036475
Li	      8.56892      6.28661      6.50658         0.004000     -0.016839     -0.032717
Li	      6.46796      4.15685      6.51312        -0.002398     -0.014668     -0.080872
Li	      6.38461      4.21181     10.55143        -0.026425      0.036830     -0.013604
Li	      6.37645      8.39300      6.44272         0.011035     -0.000911      0.009633
Li	      6.47205      6.21707      8.39287        -0.008951      0.047203      0.018572
Sc	      4.23567      4.11867      0.13696        -0.112517      0.035464     -0.077872
Sc	      6.37814      2.11461      4.34706         0.020794     -0.059470      0.022247
Sc	      2.20097      6.31643      4.17775        -0.106349      0.064226     -0.048805
Mn	      4.36479      4.17879      8.34546        -0.051944      0.004821      0.086357
V	      2.17924      6.33062      8.42903         0.035451     -0.040739      0.044028
V	      8.57399      4.19155      4.32459         0.019492     -0.008589      0.000641
V	      2.10843      2.18575      4.26690         0.132852     -0.004017     -0.091771
V	      4.26613      4.21836      4.27558         0.040023     -0.141927     -0.047091
Ni	      4.28558      6.40683      6.35311         0.023076      0.024703      0.082789
O	      2.14073      2.01646      2.34961         0.023196     -0.005796      0.011308
O	      4.43997      4.15603      2.20985         0.020940      0.012315      0.037457
O	      4.21393      2.02803      4.22837        -0.035512      0.194862     -0.011000
O	      6.40379      4.27689      4.20746        -0.111824      0.028781     -0.004126
O	      6.39840      2.02592      6.33041         0.010412     -0.036168     -0.002574
O	      8.56584      4.19403      6.27311         0.041185     -0.010260      0.154618
O	      2.26940      4.16558      4.12946         0.019785      0.019135     -0.009738
O	      4.33484      6.31005      4.24281        -0.014979     -0.027766     -0.077304
O	      4.29085      4.30798      6.21159         0.007716     -0.026208     -0.034763
O	      6.38137      6.35821      6.07258         0.068023      0.004464      0.011779
O	      6.25445      4.23131      8.45284         0.007304      0.006075     -0.025466
O	      8.53036      6.41143      8.52431         0.027518      0.038808      0.037685
O	      2.14893      6.33413      6.32876        -0.040403     -0.023408      0.041901
O	      4.28906      8.42223      6.38845         0.023231      0.070791      0.000992
O	      4.23668      6.26631      8.54945        -0.013983     -0.051247     -0.055487
O	      6.61566      8.52187      8.48994         0.042464      0.042006     -0.011751
O	      6.44093      6.33809     10.65872         0.103153      0.020645      0.018257
O	      8.51434      8.47912     10.61822        -0.027103     -0.149848      0.014271
