# total energy = -93.10461090 eV
 
CRYSTAL
PRIMVEC
-2.102510 4.314349 -2.103892 
2.007622 4.218519 2.006984 
2.065949 0.049626 -6.177747 
PRIMCOORD
16 1
Li	      2.00034      6.48922     -4.22237        -0.059144     -0.077240      0.051965
Li	     -0.03487      4.31052     -0.09906        -0.057274      0.005294      0.175540
Li	     -0.01416      2.17850     -2.11665         0.042419      0.059117     -0.032820
Li	      2.04408      4.31121     -2.14424        -0.014542     -0.028274     -0.203857
Mn	      0.00972      0.04305     -0.00999        -0.817591     -0.035221      0.395771
Mn	     -0.03870      6.48852     -2.18573         0.259995     -0.451688     -0.106919
Ni	      0.00146      4.35859     -4.25322         0.343648      0.135881      0.090713
Ni	      2.01549      2.18033     -4.14021        -0.129467      0.396925      0.189608
O	     -0.02877      4.45045     -6.37374         0.128002     -0.098192      0.248370
O	     -0.08696      2.31481     -4.15794        -0.458262     -0.163384     -0.029107
O	      2.12392      4.26629     -4.21550         0.138392     -0.027533     -0.048020
O	      2.03048      4.11295      0.03645        -0.079503      0.032217     -0.340534
O	     -0.07789      6.44594     -4.14469        -0.005032     -0.125234      0.492950
O	     -0.07248      6.63666     -0.16338         0.225218     -0.165450     -0.429560
O	     -0.13286      4.50735     -2.13357         0.172821      0.331254     -0.066609
O	      0.06314      1.98154     -0.02038         0.310319      0.211531     -0.387490
