# total energy = -251.75137993 eV
 
CRYSTAL
PRIMVEC
0.032327 6.473303 6.274871 
6.464370 -0.000234 6.307562 
4.312947 4.341056 -0.003516 
PRIMCOORD
36 1
Li	      6.40145      0.16536      6.37425         0.029478     -0.023045     -0.001474
Li	      2.05547      2.19002      0.13216         0.036885     -0.028631     -0.014426
Li	      2.08767      0.11471      1.99568         0.007678      0.036546     -0.000776
Li	      6.52707      2.14427      8.22794         0.018088      0.018047      0.079350
Li	      8.59471      4.30459      8.24507        -0.015061     -0.016615      0.011196
Li	      4.26434      4.35797      4.30707        -0.050443     -0.016590     -0.022281
Li	      8.75030      6.34107      6.36152         0.008624     -0.034980      0.017044
Li	      6.57907      4.26827      6.35398         0.007164      0.002327     -0.000149
Li	      2.22140      4.37488      6.27473        -0.042586      0.015211      0.001714
Sc	      6.44493      2.28696      4.36476        -0.001816      0.012902     -0.007536
Sc	      4.34747      8.61481      4.23727         0.040830     -0.048415      0.024119
Sc	      4.31755      4.23412      8.25672        -0.032911     -0.063088     -0.034598
Mn	      8.61033      4.35665      4.30778         0.071461      0.001346     -0.064529
Mn	      2.21152      6.35695      4.20546        -0.015026     -0.036668     -0.020607
V	      4.29673      2.39219      2.05774         0.025577      0.297849     -0.029979
V	      6.50241      6.49107      4.21067         0.005212      0.058979      0.017398
V	      4.24719      6.46034      6.32027         0.086817      0.036257     -0.034187
V	      6.49692      6.46385      8.26325         0.015733     -0.023919      0.025271
O	      2.36433      2.14850      2.20437         0.022811      0.013234      0.026534
O	      4.36581      4.14010      2.05443        -0.013549     -0.191486     -0.004226
O	      4.32389      2.21289      4.08853         0.029589     -0.007348     -0.043865
O	      6.60447      4.41019      4.20061         0.073418     -0.007846      0.037226
O	      6.46853      2.15939      6.29310        -0.027423      0.017133     -0.028726
O	      8.65228      4.34147      6.16463         0.005049     -0.002291      0.014496
O	      2.08921      4.19542      4.18866        -0.021455     -0.069314      0.030290
O	      4.38507      6.51521      4.20624         0.029021      0.034518     -0.017369
O	      4.29825      4.46659      6.28669         0.018313     -0.040374      0.040467
O	      6.35170      6.48395      6.27626         0.046357     -0.015097     -0.076179
O	      6.39604      4.36980      8.43802         0.019469      0.004914     -0.001931
O	      8.49853      6.50342      8.35846        -0.032403      0.065774     -0.033778
O	      2.32040      6.47351      6.28267        -0.125787      0.020907      0.044174
O	      4.33122      8.52541      6.37222         0.002980     -0.002510     -0.008148
O	      4.43910      6.52686      8.45998        -0.038169     -0.032559      0.099176
O	      6.42588      8.57115      8.40089        -0.018790     -0.028354      0.011287
O	      6.42608      6.47430     10.41185        -0.140398      0.009701     -0.009692
O	      8.62284      8.62755     10.41371        -0.024737      0.043485     -0.025287
