# total energy = -221.27820557 eV
 
CRYSTAL
PRIMVEC
0.019580 6.349402 6.268998 
6.410315 0.045606 6.243707 
4.308490 4.250858 -0.004383 
PRIMCOORD
36 1
Li	      2.39975      8.40585      6.40288         0.061474     -0.041127     -0.001906
Li	      6.41643     10.60228      8.28801        -0.040461      0.022898     -0.067216
Li	      4.16703      2.27266      1.95010         0.007911      0.052460      0.105689
Li	      6.34296      2.20277      4.23033         0.008146     -0.008682      0.006203
Li	      2.31377      4.11635      2.08322         0.066069     -0.031295      0.054338
Li	      2.19974      2.17547      4.13769         0.060853     -0.008487     -0.050871
Li	      4.35599      4.16029      4.15169         0.006574     -0.040902     -0.130549
Li	      4.38449      8.45999      4.33221        -0.013053     -0.025498      0.001212
Li	      4.24706      6.55273      6.28462        -0.023558      0.117536      0.013415
Sc	      8.49385      4.22795      4.15570        -0.195667     -0.113871     -0.200938
Sc	      0.15910      2.04023      2.11606         0.131668     -0.080061     -0.097142
Sc	      6.42755      6.41874      8.31731        -0.136200     -0.137617      0.150982
Ti	      2.24945      6.35920      4.30268         0.183838      0.245422     -0.085163
Co	      8.55198      6.37145      6.20947         0.383085      0.052581     -0.173546
Cu	      6.36190      4.25435      6.19573         0.119509     -0.143916      0.094620
Ni	      4.34288     10.56303      6.27408        -0.010283      0.243650      0.010665
Ni	      2.13573      4.27226      6.23060        -0.574301     -0.006472     -0.157731
Ni	      8.56192      8.51758      8.31347         0.066387      0.119584      0.101403
O	      2.12386      2.14220      2.08045        -0.040489      0.017175      0.022236
O	      4.32715      4.28527      2.00276         0.010841     -0.031356      0.409795
O	      4.27119      2.09626      4.37703        -0.096230     -0.108756      0.238828
O	      6.41268      4.23731      4.36226         0.269877      0.019967     -0.354748
O	      6.16649      2.10907      6.25909        -0.277987      0.402344     -0.148939
O	      8.57255      4.47439      6.23621         0.181438      0.278454      0.241852
O	      2.13290      4.41348      4.30638         0.099404      0.151756     -0.510013
O	      4.12643      6.40915      4.16907        -0.209630      0.025601      0.121531
O	      4.20583      4.01450      6.26185        -0.012617     -0.410536     -0.053260
O	      6.62879      6.38173      6.21721        -0.116546      0.019437     -0.129610
O	      6.34475      4.26470      8.07434        -0.080678      0.160443      0.249889
O	      8.56780      6.39931      8.33812        -0.103919     -0.041941     -0.175302
O	      2.16504      6.39191      6.16860         0.101415     -0.086649     -0.099583
O	      4.47515      8.58698      6.26097        -0.049765     -0.488212     -0.062797
O	      4.34875      6.35556      8.37173         0.109144     -0.010363      0.017855
O	      6.51370      8.48496      8.13327         0.075661     -0.051968      0.708677
O	      6.47167      6.40875     10.39711         0.011170     -0.133416     -0.148856
O	      8.55642      8.43631     10.41981         0.026920      0.071818      0.098979
