# total energy = -220.96994209 eV
 
CRYSTAL
PRIMVEC
0.030139 6.203998 6.309512 
6.331525 -0.015326 6.355145 
4.222052 4.167657 -0.011272 
PRIMCOORD
36 1
Li	      2.07392      2.11620      0.06987        -0.006055     -0.001605      0.022847
Li	      4.35394      8.29425      8.45620         0.109668     -0.066717     -0.012081
Li	      6.26040      2.12554      4.16473         0.027854     -0.034955     -0.072728
Li	      2.17244      2.10998      4.26197         0.004164      0.045465     -0.006951
Li	      8.35777      6.30440      6.32485        -0.037331     -0.033977      0.023426
Li	      6.31498      4.06975      6.39140        -0.002048      0.012766     -0.011934
Li	      0.04197      4.12487      4.18432         0.013919      0.060283     -0.003301
Li	      6.40811      8.20882      6.41151         0.002709      0.005987      0.081561
Li	      6.40266      6.26712      8.33702         0.002936      0.064566     -0.016598
Sc	      4.21859      4.12562      0.04404         0.081726     -0.065565     -0.161349
Sc	      8.35126      4.25361      4.26068         0.047356     -0.140741      0.029452
Sc	      4.38639      6.27347      6.34625        -0.080586      0.037120      0.040635
Ti	      8.41868      6.29777     10.54230        -0.256001      0.153355      0.148197
Co	      8.38584      4.09481      8.41581        -0.354029      0.280007     -0.031664
Cu	      6.35457      2.07024      8.42772        -0.041585     -0.035889      0.021149
Cu	      4.27874      4.05047      4.29001        -0.120098     -0.028518      0.055309
Ni	      6.34148      4.16248      2.14927         0.003177      0.052754     -0.113593
Ni	      4.23467      4.11518      8.37384         0.042727     -0.045089     -0.015513
O	      6.48484      8.39071      8.38555        -0.145910     -0.115397      0.051114
O	      1.98260      2.13232      2.12155        -0.016586     -0.057940     -0.009584
O	      4.22679      4.20028      2.13970         0.079750      0.128196     -0.001793
O	      4.24040      2.07918      4.20548        -0.025479      0.021502      0.010637
O	      6.28966      4.15634      4.18178         0.117572      0.028193      0.100424
O	      6.34492      2.02446      6.46167        -0.002684     -0.012595      0.070618
O	      8.45450      4.12707      6.43437         0.105992     -0.076796      0.011913
O	      2.18375      4.20926      3.93415        -0.014854      0.016140      0.150349
O	      4.09474      6.10419      4.20381        -0.015567      0.029349     -0.063671
O	      4.21566      4.13908      6.34916         0.046085      0.074548     -0.221188
O	      6.32919      6.23189      6.32877         0.034423     -0.047462     -0.013898
O	      6.35590      4.01683      8.47684         0.123293     -0.033659     -0.101269
O	      8.48607      6.12253      8.52148         0.052918      0.016555      0.097304
O	      2.13633      6.20865      6.13298        -0.018665      0.012357     -0.186808
O	      4.25261      8.29811      6.31258        -0.004570     -0.070265      0.024281
O	      4.19506      6.18620      8.47449         0.130462      0.101169     -0.075353
O	      6.42848      6.19672     10.58776         0.139473      0.009841      0.088288
O	      8.49975      8.20138     10.43236        -0.024153     -0.282982      0.091774
