# total energy = -220.97984622 eV
 
CRYSTAL
PRIMVEC
0.003819 6.336904 6.331578 
6.220050 0.056917 6.278582 
4.195877 4.238731 -0.011541 
PRIMCOORD
36 1
Li	      4.16521      2.20451      2.16716        -0.012903      0.058159      0.015391
Li	      4.18148      0.12469      4.22625        -0.020199      0.038581      0.016960
Li	      4.15569      6.31590      2.25471        -0.006138     -0.000054      0.128403
Li	      2.01180      2.25955      4.25056        -0.100930      0.008752      0.010723
Li	      4.05722      4.16805      4.31094        -0.057787     -0.148534      0.052835
Li	      4.12996      2.16988      6.18689         0.004681     -0.004684     -0.018972
Li	      2.18511      6.28616      4.26843         0.027238     -0.036269      0.000567
Li	      2.10618      4.22034      6.12528         0.003160     -0.004144     -0.051771
Li	      4.21240      6.29820      6.16469         0.034819     -0.066786     -0.009118
Sc	      6.25167      4.28392      6.16117        -0.051096      0.008663      0.007370
Sc	      8.35072      8.41158      8.40246         0.095773     -0.097226     -0.039618
Sc	      6.20841      6.42070      8.37515         0.017078     -0.060675     -0.136702
Ti	      2.09425      0.18381      2.12742        -0.019381      0.617268      0.129686
Co	      4.18659     10.54991      6.32235         0.156875      0.046070     -0.013510
Ni	      2.14652      8.42786      6.28910         0.049457     -0.021466      0.114799
Ni	      6.21880      2.13370      4.18350         0.215006     -0.027294      0.030605
Ni	      4.25101      8.43656      4.26227        -0.041844      0.114699      0.051422
Ni	      2.14728      4.24047      2.15644         0.048260     -0.046552      0.025081
O	      4.34174      2.13509      4.17308        -0.178949     -0.021252      0.001066
O	      4.18958      6.55947      4.24604        -0.024253     -0.121486      0.037763
O	      2.09869      2.04771      2.07874         0.003720     -0.556075      0.082637
O	      4.24633      4.27178      1.88611         0.114972      0.044933     -0.046662
O	      6.22679      4.23825      4.06652         0.015197      0.106485     -0.157200
O	      6.29209      2.00994      6.14469        -0.219325      0.098554      0.035896
O	      8.44154      4.22764      6.35634         0.172881      0.033137     -0.159101
O	      2.00829      4.21622      4.14560         0.195559      0.053441      0.112516
O	      4.24331      4.24139      6.33730        -0.011500     -0.008099      0.006423
O	      6.26439      6.30229      6.36149        -0.019668     -0.019629      0.026780
O	      6.24081      4.29333      8.35894        -0.080682      0.030859     -0.064311
O	      8.25887      6.38577      8.42459        -0.038775      0.157392     -0.003203
O	      1.91387      6.34074      6.45501        -0.103213     -0.130341      0.001999
O	      4.16940      8.69228      6.28819        -0.050783     -0.079919      0.024762
O	      4.03661      6.33439      8.37007        -0.124012     -0.029055     -0.009795
O	      6.26448      8.51567      8.51888        -0.037781      0.077365     -0.092931
O	      6.20576      6.30141     10.64198         0.059850     -0.020281      0.069368
O	      8.29065      8.50974     10.52521        -0.015305      0.005461     -0.180159
