# total energy = -223.42418223 eV
 
CRYSTAL
PRIMVEC
-0.017212 6.263983 6.340184 
6.134741 -0.058729 6.381395 
4.091504 4.205202 -0.040723 
PRIMCOORD
36 1
Li	      4.05148      4.22699      0.04915         0.000564      0.020754      0.061895
Li	      1.99000      0.05223      2.13787        -0.035699      0.042119     -0.075486
Li	      0.04922      2.07720      2.11622         0.034564     -0.053577     -0.000429
Li	      6.05226      6.18648      4.26992        -0.020899      0.040631      0.044063
Li	      4.08997      4.28529      4.11762        -0.070650      0.038005     -0.026052
Li	      6.17198      4.23174      6.29279        -0.036771     -0.028096      0.045894
Li	      0.01575      4.12271      4.18687        -0.008461     -0.082146      0.052417
Li	      4.07509      6.25982      6.22652        -0.061832     -0.003324     -0.033809
Li	      6.14959      6.23965      8.44320         0.032136      0.073948     -0.100665
Sc	      6.08095      2.13107      4.23233         0.072441     -0.016981      0.250892
Sc	      2.11369      6.23751      4.16011         0.192606     -0.096124      0.140720
Sc	      6.02090      8.36759      6.30259        -0.030035     -0.066885      0.150149
Ti	      4.25751      4.28665      8.38502         0.064572      0.051887     -0.581966
Co	      2.05088      2.08029      0.01412         0.043989     -0.166092      0.126049
Co	      8.18067      6.21436      6.39517         0.258127      0.209469      0.013452
Cu	      4.11329     -0.01846      4.29343         0.016091     -0.094528      0.045342
Ni	      4.03161      2.05481      2.12025         0.082177     -0.116252     -0.191972
Ni	      2.00987      4.13058      2.11805         0.013112      0.003238      0.049231
O	      2.04392      2.09671      1.87572        -0.227705     -0.156873      0.018980
O	      4.00021      4.01769      2.14277         0.030011      0.201069      0.043436
O	      4.05173      2.00898      4.29028        -0.222893     -0.211748      0.317674
O	      6.30501      4.17316      4.21853         0.071040      0.076016     -0.002737
O	      6.08207      2.03767      6.34209        -0.218612      0.060809     -0.234898
O	      8.17113      4.00347      6.40558         0.015547     -0.056306     -0.170793
O	      1.99945      4.20576      4.26789        -0.013827      0.050790     -0.091053
O	      4.08399      6.24001      4.18007        -0.111332      0.022228      0.046220
O	      4.07841      4.13632      6.49710         0.029475      0.204133      0.359547
O	      6.31949      6.30141      6.35084         0.063642     -0.005134     -0.016636
O	      6.07478      4.17212      8.48388        -0.188605      0.061015      0.053996
O	      8.20268      6.32417      8.42462        -0.076286     -0.037824     -0.242964
O	      2.00015      6.34303      6.27727        -0.027961     -0.047888     -0.104101
O	      3.94618      8.30987      6.40548         0.265015     -0.010321     -0.179197
O	      4.10517      6.17279      8.46570         0.037040     -0.175294      0.105091
O	      6.19465      8.36238      8.43392         0.065066      0.059238      0.187129
O	      6.01785      6.27643     10.58190        -0.056540     -0.032614     -0.038968
O	      8.18266      8.32139     10.60619         0.020892      0.242659     -0.020452
