# total energy = -224.23494261 eV
 
CRYSTAL
PRIMVEC
0.001487 6.260037 6.387368 
6.191079 0.007963 6.380081 
4.156775 4.198315 -0.024333 
PRIMCOORD
36 1
Li	      0.05533      6.19326      6.31511        -0.013149     -0.000354     -0.030939
Li	      4.16521      6.35540     10.52117        -0.002512     -0.028789      0.018017
Li	      6.11485      8.35707     10.52997         0.051003     -0.023510     -0.013671
Li	      6.11779      2.23566      8.54073         0.058219      0.032023     -0.014141
Li	      4.20154      4.11348      4.25044         0.005247      0.020633      0.026972
Li	      6.16672      4.25030     10.60170         0.016357      0.016573      0.017653
Li	      6.16961      8.39575      6.43350        -0.009358     -0.014616      0.013554
Li	      8.37883      8.27897      8.54175         0.044526      0.067690     -0.011704
Li	      6.20465      6.34737      8.62032         0.030726     -0.001954     -0.007411
Sc	      8.27394      4.29388      8.51080        -0.091627      0.117406      0.017456
Sc	      6.24921      6.23442      4.22842        -0.010545     -0.111866      0.097292
Sc	      4.15809      6.19464      6.45298         0.075602     -0.148785     -0.008782
Ti	      8.22325      8.39975     12.57077        -0.144515     -0.071159     -0.322307
Co	      6.21334      4.17698      6.37820        -0.059895     -0.068342      0.054329
Co	      8.23845      6.25012     10.61763        -0.097300      0.234871      0.038827
Ni	      6.17815      4.11741      2.21918         0.054501      0.095210     -0.080277
Ni	      4.16422      8.36700      8.50276        -0.045529     -0.074092      0.077576
Ni	      4.18710      2.15421      6.31057         0.016809     -0.131678      0.149944
O	      2.15143      2.07632      2.09137        -0.099345      0.107276     -0.046966
O	      4.17503      4.02639      2.07067        -0.182512      0.167268     -0.013422
O	      4.11174      2.07751      4.29537        -0.084836      0.044332     -0.145840
O	      6.22270      4.20906      4.32772         0.001404      0.105467      0.145771
O	      6.25247      2.22164      6.42539         0.274548      0.057857     -0.029499
O	      8.19771      4.12900      6.34915        -0.018136     -0.169171      0.001499
O	      2.05960      4.27197      4.22865        -0.012616      0.048472     -0.044552
O	      4.07303      6.27511      4.30286        -0.092452     -0.022721      0.002217
O	      4.26387      4.14120      6.44912         0.063365      0.189268     -0.037902
O	      6.25637      6.17458      6.33830        -0.128844     -0.018277     -0.051996
O	      6.24266      4.21228      8.31032         0.119614      0.034050     -0.006808
O	      8.32151      6.31571      8.68329        -0.030803     -0.118582      0.019106
O	      2.04980      6.35220      6.24293         0.001754      0.093121     -0.065109
O	      3.95101      8.32591      6.38445        -0.131040      0.041440     -0.098080
O	      4.07244      6.41310      8.51259         0.054094     -0.104073     -0.032000
O	      6.03608      8.40770      8.42838         0.217185     -0.204788      0.048718
O	      6.42847      6.25652     10.63896         0.158939     -0.045563      0.008901
O	      8.26867      8.22864     10.69759         0.011121     -0.114634      0.323576
