# total energy = -226.80980565 eV
 
CRYSTAL
PRIMVEC
0.088242 6.218995 6.379892 
6.234513 0.058287 6.410693 
4.189414 4.199390 0.005663 
PRIMCOORD
36 1
Li	      4.17498      4.17320      0.04760        -0.026095      0.013556     -0.048513
Li	      2.11607      2.11101      0.07221        -0.021976      0.036050      0.011593
Li	      8.27886      4.31734      8.39329        -0.013520     -0.014948     -0.065251
Li	      6.28176      6.28315      4.37411         0.005459     -0.008852     -0.070420
Li	      4.17372      4.24314      4.26793        -0.044944      0.035525     -0.096760
Li	      8.24711      6.28405      6.46629         0.023427     -0.066707     -0.025137
Li	      6.31155      4.32050      6.50344         0.065185     -0.027030     -0.021153
Li	      0.14415      4.10680      4.29030         0.059589     -0.037923     -0.018353
Li	      6.39910      6.14683      8.40684         0.005835      0.030351      0.059205
Sc	      4.11529      2.15423      2.06416         0.074364     -0.013423      0.195420
Sc	      8.40940      4.19752      4.44885         0.012677     -0.066673     -0.095133
Sc	      6.23274      2.16946      4.45862         0.037662      0.016057     -0.121635
Ti	      6.23927      2.18221      8.43488        -0.023025      0.197061      0.137786
Co	      2.07778      0.02301      2.13748         0.041854     -0.032062      0.151508
Co	      2.14975      6.20000      4.23149        -0.014191     -0.028656     -0.341969
Co	      4.21318      4.18222      8.49705         0.280726     -0.006235     -0.378240
Cu	      2.16874      4.15660      6.33298        -0.054287     -0.090011     -0.049498
Cu	      4.28452      6.24878      6.32768         0.010096      0.097062     -0.074421
O	      6.23682      6.38382      6.36807        -0.136003     -0.080224      0.047117
O	      2.02024      2.00593      2.15032        -0.045304     -0.013258     -0.066397
O	      4.29584      4.22943      2.08116         0.019476      0.065219     -0.013415
O	      4.22962      2.06170      4.17065        -0.102186      0.056263      0.071089
O	      6.29542      4.20033      4.13434        -0.016837      0.051621     -0.010652
O	      6.26316      2.12886      6.49703        -0.002629      0.017524      0.123381
O	      8.33794      4.19913      6.38844        -0.027504      0.031706      0.066525
O	      2.15634      4.33852      4.34876         0.013921      0.147107     -0.470431
O	      4.03250      6.23053      4.04127         0.112554     -0.016319     -0.087295
O	      4.16052      4.24538      6.58102        -0.066396      0.237121      0.114130
O	      6.17000      4.10892      8.50233         0.474320     -0.181878      0.018377
O	      8.44030      6.42651      8.49485         0.055461      0.060497     -0.148435
O	      2.27007      6.18694      6.53875         0.178586     -0.114441      0.253206
O	      4.31830      8.27635      6.40668        -0.214733     -0.167520     -0.046406
O	      4.11767      6.16148      8.62886        -0.016198     -0.066140      0.118878
O	      6.41486      8.49493      8.53380        -0.506007      0.091779      0.430773
O	      6.43715      6.30704     10.64150        -0.076982     -0.036516      0.167604
O	      8.41042      8.27927     10.51627        -0.062375     -0.115684      0.282924
