# total energy = -92.96826495 eV
 
CRYSTAL
PRIMVEC
-2.112918 4.335707 -2.114307 
2.017561 4.239403 2.016919 
2.076176 0.049872 -6.208330 
PRIMCOORD
16 1
Li	      2.02020      6.55363     -4.26428        -0.094710     -0.110441      0.083518
Li	     -0.02494      4.35356     -0.13077        -0.086948      0.007608      0.267220
Li	     -0.01430      2.20011     -2.13766         0.065470      0.087883     -0.059229
Li	      2.06437      4.35400     -2.16552        -0.018729     -0.045098     -0.306156
Mn	      0.03009      0.06471     -0.03083        -1.188150     -0.044023      0.598383
Mn	     -0.03909      6.55292     -2.20742         0.360123     -0.658660     -0.143606
Ni	      0.00147      4.40185     -4.29544         0.479917      0.183476      0.141803
Ni	      2.03549      2.20196     -4.18130        -0.174840      0.577632      0.267853
O	     -0.02905      4.49462     -6.43700         0.190255     -0.090621      0.431803
O	     -0.07783      2.35877     -4.18923        -0.579738     -0.174680     -0.048558
O	      2.14500      4.30863     -4.25734         0.127799     -0.095957     -0.070147
O	      2.05063      4.15377      0.03681        -0.067671      0.055468     -0.524758
O	      2.03426      2.17421     -2.07152        -0.012648     -0.226096      0.631063
O	     -0.07320      6.70253     -0.16500         0.295771     -0.249502     -0.598632
O	     -0.13418      4.55209     -2.15475         0.274202      0.464441     -0.142377
O	      0.06377      2.00121     -0.02059         0.429896      0.318570     -0.528180
