# total energy = -226.79269035 eV
 
CRYSTAL
PRIMVEC
0.041514 6.146757 6.398969 
6.309539 0.000794 6.439839 
4.201122 4.119138 0.006174 
PRIMCOORD
36 1
Li	      0.13612      6.15611      6.38286        -0.021172     -0.029815      0.048600
Li	      6.43403     10.18690      8.58170         0.026244      0.030078      0.093921
Li	      8.27074      4.10396      4.29279         0.014860      0.010072     -0.098504
Li	      6.32784      6.12457      4.33759         0.044913     -0.037960     -0.070579
Li	      4.28431      4.10537      4.27936         0.033816     -0.015681     -0.067907
Li	      6.33540      4.07923      6.27297        -0.015997      0.063158     -0.000876
Li	      2.11501      6.14651      4.43152         0.037849      0.067809     -0.063770
Li	      2.19464      4.25026      6.42326        -0.072357     -0.024608      0.106937
Li	      4.19457      4.16547      8.49248         0.008297      0.026489      0.044659
Sc	      4.25354      6.05997      2.17359        -0.013217     -0.038803      0.030438
Sc	      4.22780      8.24185      4.35690        -0.190916      0.027214     -0.097698
Sc	      6.30310      6.19636      8.56840        -0.186915      0.141998     -0.079701
Ti	      4.16179      2.16829      6.29904        -0.050218      0.180479      0.033584
Co	      2.08194      2.04823      0.01196        -0.379443     -0.726733     -0.413552
Co	      4.20293      2.08345      2.12827        -0.086174     -0.204096     -0.295020
Co	      8.42618      4.10350      8.56546         0.327253     -0.217374      0.819096
Ni	      6.34907      2.08315      4.31681         0.044286     -0.101398     -0.041946
Ni	      4.16840      6.09789      6.35495         0.345760     -0.051969      0.090342
O	      6.33440      3.95372      4.30077        -0.074494      0.147108     -0.011936
O	      2.20446      2.09778      1.99497         0.123572     -0.453158      1.117510
O	      4.17806      3.97234      2.16794        -0.046448      0.242338     -0.035583
O	      4.28073      1.98434      4.42400        -0.075618      0.175653     -0.380931
O	      6.35801      2.03696      6.46949        -1.053602      0.014640      0.107384
O	      8.40532      4.09230      6.69282        -0.099800      0.556188     -0.961244
O	      2.06589      4.10343      4.01300        -0.093902      0.129242      0.370036
O	      4.25817      6.15402      4.23805        -0.048593      0.084746      0.015618
O	      4.21237      4.02454      6.43191        -0.002462     -0.385584     -0.085353
O	      6.45473      6.17892      6.41107         0.206611     -0.020028      0.046981
O	      6.25756      4.07858      8.66036         0.059736      0.002064      0.098638
O	      8.45397      6.13792      8.39767        -0.019125      0.404750     -0.163852
O	      2.16759      6.27232      6.40482        -0.247998     -0.189152      0.051480
O	      4.08304      8.19441      6.42185         1.486603      0.236794      0.804230
O	      4.26500      6.30103      8.45192        -0.039093      0.063349     -0.001710
O	      6.20315      8.24096      8.62638        -0.196227     -0.045772     -0.099841
O	      6.35179      6.23224     10.65100         0.126787     -0.206898     -0.017295
O	      8.37741      8.25477     10.90617         0.127185      0.144856     -0.892156
