# total energy = -229.61816903 eV
 
CRYSTAL
PRIMVEC
0.049451 6.304893 6.376442 
6.375722 0.037132 6.388237 
4.282962 4.242989 -0.007238 
PRIMCOORD
36 1
Li	      6.38125      6.37829     12.63102         0.000931      0.063637      0.099658
Li	      2.26197      8.35968      6.28418        -0.137491      0.035055      0.077835
Li	      2.22551      6.30600      8.35092         0.007212      0.069162     -0.045592
Li	      4.47334      6.32962     10.75028        -0.119496      0.036002      0.025839
Li	      6.43036      8.32529     10.72021        -0.023277      0.066981      0.128857
Li	      8.63903      6.29301      6.38987         0.022558     -0.002616      0.029372
Li	      8.38605      6.39402     10.73089         0.041836      0.003514      0.020045
Li	      6.35160      8.56238      6.50377        -0.022913     -0.005626      0.013345
Li	      6.39751      6.30502      8.60815         0.000843     -0.028243     -0.063961
Sc	      6.41295      2.15359      8.40102         0.053243      0.162592     -0.494244
Sc	      6.47534      6.32308      4.27630         0.048698     -0.066502      0.180395
Sc	      4.29776      4.20560      4.29885         0.043842     -0.016853      0.084840
Ti	      8.31779      8.47047      8.60720        -0.142920     -0.136593      0.081173
Co	      6.49845      4.21564      6.36529        -0.408488      0.610977      0.318940
Co	      4.35340      8.38025      8.48603        -0.091401     -0.037002      0.099874
Co	      8.52336      4.29780      8.46054         0.146865     -0.045108     -0.215044
Co	      4.22435      6.34488      6.39951         0.250128     -0.132632      0.017136
Cu	      6.37927      4.35961     10.71702        -0.074931     -0.186071      0.053843
O	      6.41304      6.25118     10.72020        -0.015713      0.062715     -0.032219
O	      2.13471      2.10824      2.17411         0.019529     -0.077495      0.081055
O	      4.17569      4.25920      2.13408        -0.002788     -0.020814     -0.030692
O	      4.23568      2.16548      4.27636         0.052987     -0.034353     -0.085395
O	      6.35062      4.28829      4.29917         0.158722     -0.229236      0.756909
O	      6.42688      2.29808      6.38185         0.144359      0.000162      0.065612
O	      8.48442      4.30906      6.60124        -0.660949     -0.087128     -0.194315
O	      2.18072      4.22323      4.01338        -0.118441      0.043381      0.085132
O	      4.32245      6.39823      4.28640        -0.022535     -0.002553      0.131245
O	      4.28123      4.36281      6.42105         0.444101      0.059966     -0.021358
O	      6.22695      6.19585      6.35085         0.072708     -0.214511      0.016051
O	      6.51142      4.25075      8.42195         0.004309      0.093214     -0.888016
O	      8.61310      6.55213      8.42680        -0.071603      0.273831      0.064709
O	      2.40445      6.31751      6.33802         0.125344     -0.068481     -0.013907
O	      4.36788      8.19586      6.46616         0.000533     -0.160074     -0.144209
O	      4.26216      6.22582      8.29549         0.029806     -0.088292     -0.046382
O	      6.49136      8.44147      8.52992         0.187077      0.040193     -0.007867
O	      8.59266      8.55027     10.42526         0.057315      0.018801     -0.148663
