# total energy = -217.23954688 eV
 
CRYSTAL
PRIMVEC
0.012474 6.383882 6.271454 
6.383155 0.033944 6.250250 
4.282651 4.269154 -0.004904 
PRIMCOORD
36 1
Li	     10.57074      4.31923      6.35263         0.039775     -0.008067      0.106678
Li	      6.36930      4.33234      2.14981        -0.128251      0.159735     -0.248655
Li	      8.42558      4.37733      4.14474         0.258835      0.161426     -0.073955
Li	      4.24643      6.25749      2.06499         0.047790     -0.277391      0.031309
Li	      2.18729      2.04086      4.12892         0.072511      0.204136     -0.132021
Li	      4.21505      4.31611      4.14690        -0.224244     -0.078346     -0.135547
Li	      8.58700      6.33721      6.23034         0.058128      0.063043     -0.128686
Li	      2.25980      6.30630      4.21300         0.036330     -0.028054      0.024405
Li	      2.25733      4.36836      6.25795        -0.074357      0.094292     -0.025056
Sc	      2.09225      2.11856      0.07519         0.402651     -0.570844      0.187517
Sc	      6.32532      2.26271      4.17616        -0.607251     -1.190330     -0.288115
Sc	      0.08289      4.22521      4.21112         0.092926     -0.019167      0.431383
Ti	      6.52787      6.48574      8.30978         0.184585      0.535171      0.462208
Cu	      4.29065      6.37050      6.25227        -0.403516      0.220726      0.007812
Ni	      4.20942      2.18729      2.07535         0.005782     -0.048691      0.010874
Ni	      2.17929      4.22906      2.10043         0.366449      0.051586      0.487073
Ni	      6.37205      4.28819      6.22559        -0.360447      0.112346     -0.502434
Ni	      4.28701      4.30959      8.34793        -0.170313     -0.022259      0.258945
O	      2.12682      2.19677      2.10305        -0.369048     -0.268163     -0.179380
O	      4.17793      4.11988      2.07850         0.002666      0.928506     -0.113163
O	      4.27483      2.12498      4.00762         0.475826     -0.155656      1.060682
O	      6.43634      4.23879      4.18647        -0.014062      0.605730      1.205246
O	      6.40490      2.11392      6.24129        -0.017747      0.553313     -0.127696
O	      8.46170      4.27740      6.43893        -0.724507      0.039572     -0.565184
O	      2.11377      4.29221      3.99269        -0.075624      0.056508      0.330492
O	      4.28046      6.42188      4.35789         0.047976      0.035262     -0.195087
O	      4.33902      4.33638      6.35116         0.904538     -0.444255     -0.330050
O	      6.24321      6.37445      6.33068         0.299355     -0.498622      0.018381
O	      6.39381      4.39374      8.35390         0.002231     -0.008801     -0.678968
O	      8.42554      6.42893      8.26900        -0.449258      0.041866     -0.029886
O	      2.35993      6.39439      6.29771         0.039856      0.097360      0.008293
O	      4.27621      8.55932      6.32542        -0.034087      0.120780     -0.693039
O	      4.37844      6.48146      8.18048         0.174803     -0.439614     -0.002749
O	      6.45671      8.41921      8.32695         0.206513     -0.220958      0.041873
O	      6.35707      6.40648     10.25255         0.052407      0.051041     -0.306945
O	      8.55468      8.56842     10.42771        -0.119220      0.146817      0.083448
