# total energy = -217.82811983 eV
 
CRYSTAL
PRIMVEC
-0.015847 6.750611 6.201707 
6.135791 -0.021076 6.204534 
4.094270 4.508636 -0.016819 
PRIMCOORD
36 1
Li	      2.29161      6.58820      8.17585        -0.042505     -0.016821      0.149910
Li	      4.09358      8.85632      8.25495         0.058750     -0.017558      0.022792
Li	      4.07895      6.59376     10.16146        -0.064348     -0.110711     -0.081712
Li	      6.05853      2.33447      8.26525        -0.041756      0.023587      0.013916
Li	      4.01865      2.46348      6.32412         0.152233      0.064136      0.083403
Li	      4.09465      8.95764      4.18095        -0.021714     -0.021287     -0.160975
Li	      5.96517      8.69334      6.37332         0.015154      0.163737      0.115310
Li	      4.20127      6.63701      6.23359        -0.177511     -0.002523      0.148854
Li	      6.10994      6.67892      8.37671        -0.042137     -0.053350      0.052097
Sc	      4.05952     11.19407      6.19722         0.034499     -0.128334      0.068802
Sc	      6.06692      8.94477     10.27904        -0.010799      0.426962     -0.259860
Sc	      4.02836      4.60384      4.11988         0.374720     -0.083838     -0.117630
Ti	      2.08378      8.82087      6.37253         0.204778     -0.250488      0.039875
Cu	      8.07565      4.57811      8.26154        -0.114150     -0.004275      0.053941
Cu	      2.07994      2.19826      4.05865         0.089760     -0.115061     -0.426547
Ni	      8.16282      6.86811     10.24524         0.027023     -0.026395      0.079570
Ni	      6.16312      4.58591      6.18228        -0.400713      0.898333     -0.232060
Ni	      4.07595      4.56253      8.23446         0.120362      0.026377      0.060256
O	      6.19643      6.69857      5.90650        -0.041555     -0.591154      0.174320
O	      4.15778      6.45099      8.23918         0.115872      0.218181     -0.130115
O	      2.07671      2.02977      2.07355        -0.035169     -0.014710     -0.085175
O	      3.80947      4.58942      2.06434         0.134014      0.029438     -0.068043
O	      3.97613      2.40243      4.06319        -0.101320      0.058217      0.070501
O	      6.12582      4.31834      4.29032        -0.103329     -0.328080     -1.167489
O	      6.24000      2.09851      6.22410         0.055524      0.075343      0.072842
O	      8.07133      4.26818      6.37948         0.521071     -0.132786      0.019756
O	      1.95114      4.84378      3.91340         0.010151     -0.049935      0.154542
O	      4.26945      6.70116      4.08150        -0.055912      0.028358      0.061034
O	      4.25814      4.52070      6.21934        -0.513393     -0.098363     -0.127349
O	      6.21390      4.59143      8.07347         0.132662      0.030396      1.200721
O	      8.15540      7.16883      8.28282         0.024244     -0.181485     -0.123636
O	      2.04263      6.91506      6.17106         0.007286      0.336437      0.050020
O	      3.98966      9.10304      6.23971        -0.148390     -0.020014      0.021686
O	      6.17976      9.08570      8.25142        -0.119471     -0.161041     -0.035935
O	      6.05418      6.87702     10.40467         0.008306      0.017781      0.078857
O	      8.19061      8.95344     10.46488        -0.052239      0.010923      0.223520
