# total energy = -217.05778925 eV
 
CRYSTAL
PRIMVEC
0.002457 6.350693 6.278765 
6.351500 0.023953 6.257548 
4.262120 4.247077 -0.011597 
PRIMCOORD
36 1
Li	      8.37098      2.17514      6.36771        -0.041672      0.083051     -0.002645
Li	      2.03890      0.11875      2.01089        -0.123799      0.049148      0.043368
Li	      0.11449      2.05620      2.05434        -0.018558     -0.057132     -0.045464
Li	      8.45150      4.36836      8.31331         0.103585      0.039508     -0.036019
Li	      6.27637      6.41822      4.11674         0.053752      0.008053     -0.095101
Li	      4.20525      4.38184      4.19038        -0.016504     -0.081976     -0.150484
Li	      8.51086      6.31438      6.34891         0.099936     -0.028390      0.031621
Li	      2.22796      6.22319      4.12377        -0.044572     -0.062323     -0.116690
Li	      6.46274      6.30288      8.24916         0.110320     -0.034061      0.097634
Sc	      4.11330      2.17368      2.03611        -0.091224      0.557688     -0.122353
Sc	      6.38117      8.46668     10.47416        -0.134591     -0.094547      0.294128
Sc	      8.53874      8.35346      8.28843         0.065160     -0.400861      0.131665
Ti	      8.42934      4.28213      4.19573         0.030689      0.177502      0.102304
Cu	      0.02416      0.06120      0.05724         0.041946      0.190776      0.035207
Cu	      0.09923      4.16985      4.15023        -0.312693      0.289782     -0.451037
Cu	      2.15179      4.21047      6.23484         0.073570     -0.176814      0.021696
Ni	      6.42645      4.26947      6.31693        -0.268719     -0.015836      0.177952
Ni	      4.22868      6.34862      6.20642        -0.105023      0.046513     -0.375782
O	      2.05004      4.20982      4.26710         0.283633      0.010712      0.426770
O	      2.23738      6.22074      6.25757        -0.012875      0.015388      0.069778
O	      2.17914      2.11959      2.05442        -0.084622      0.002907      0.035260
O	      4.27970      4.25133      1.90900         0.021581     -0.275472      0.686429
O	      4.30185      2.01561      4.12062         0.024271     -0.237403      0.037543
O	      6.49059      4.21058      4.26802         0.252686      0.049810     -0.062917
O	      6.37776      2.15948      6.24439         0.001850      0.122826     -0.104360
O	      8.46986      4.29228      6.12865        -0.072914      0.015609      0.052649
O	      4.23355      6.48256      4.26294        -0.055207     -0.284839      0.051462
O	      4.19004      4.30471      6.21550         0.504014      0.108102      0.042847
O	      6.16779      6.36295      6.26970         0.201304      0.081493      0.134644
O	      6.33927      4.29338      8.42501         0.141143     -0.040004     -0.542725
O	      8.45030      6.40366      8.35399         0.008029      0.245317      0.032827
O	      4.38826      8.48349      6.16248        -0.368265     -0.233234      0.563515
O	      4.23977      6.37481      8.49134        -0.019026     -0.085793     -0.012241
O	      6.37909      8.46572      8.37720         0.054396     -0.003810     -0.401664
O	      6.26971      6.35997     10.67269        -0.216137     -0.072708     -0.555246
O	      8.50592      8.63695     10.41972        -0.085462      0.091018      0.005431
