# total energy = -219.00540400 eV
 
CRYSTAL
PRIMVEC
0.033200 6.396187 6.413418 
6.346751 0.037040 6.409803 
4.236967 4.267354 0.019051 
PRIMCOORD
36 1
Li	      6.49717      8.43716     10.50387         0.073955     -0.054306      0.008596
Li	      8.34953      4.45753      8.52829        -0.074181      0.123854      0.025929
Li	      8.42242      6.52941      6.64123         0.005089     -0.023145      0.073063
Li	     10.56977      8.54781     10.66810        -0.002163      0.002950     -0.077290
Li	      8.40344      6.60076     10.52297        -0.002513      0.013057      0.081934
Li	      6.42291      8.50645      6.56296         0.026047      0.037364     -0.080264
Li	      4.21920      6.39506      6.58412        -0.037684     -0.096279     -0.053236
Li	      4.28199      4.20451      8.38992         0.107670     -0.017991     -0.039487
Li	      6.49315      6.40880      8.56274         0.047319     -0.081628      0.021705
Sc	      0.04861      6.38814      6.40177         0.298270      0.321684     -0.232885
Sc	      4.29549      6.32597     10.58519         0.237380     -0.254737      0.118614
Sc	      4.24504      4.27506      4.31692        -0.270593      0.146915      0.236025
Ti	      6.31356      6.50981      4.39183        -0.364229      0.580974      0.648327
Cu	      2.18456      8.52276      6.45393        -0.363020     -0.080191     -0.763437
Cu	      2.17625      6.36483      8.49393         0.015250     -0.279099      0.305261
Cu	      4.28175      8.48037      8.51414         0.338108     -0.058638      0.074292
Cu	      6.28902      2.25845      8.55102        -0.006943      0.051423     -0.030120
Cu	      6.34955      4.27273      6.49157         0.045625      0.262958     -0.245293
O	      6.36714      4.21954      8.45675         0.020761     -0.128701      0.397802
O	      4.18301      8.59935      6.52929         0.101320     -0.277906      0.507858
O	      4.15215      6.26408      8.56021         0.161463      0.254537      0.026056
O	      6.25018      8.65812      8.53021        -0.357748     -0.104140      0.009112
O	      2.19025      2.02188      2.20115         0.163725      0.118993      0.109058
O	      4.32625      4.45432      2.15114        -0.192952     -0.034864      0.097323
O	      4.09676      2.15324      4.16351        -0.027006     -0.057694     -0.351210
O	      6.35366      4.38133      4.27486        -0.001072     -0.121007      0.048354
O	      6.43156      2.24660      6.53247         0.094726     -0.255372      0.037446
O	      8.43643      4.21439      6.39963         0.064727      0.158024      0.036555
O	      2.16181      4.11017      4.34465         0.101574     -0.450864     -0.074433
O	      4.37954      6.38932      4.17933         0.341171     -0.025381      0.103800
O	      4.36890      4.24840      6.33911        -0.152718      0.014707     -0.157192
O	      6.37996      6.29129      6.27947        -0.011371      0.189042     -0.499713
O	      8.55583      6.43304      8.58105        -0.166575      0.027220     -0.036380
O	      2.14015      6.50470      6.50615        -0.101863      0.064949     -0.372807
O	      6.32402      6.45440     10.76645        -0.093932      0.035332     -0.017779
O	      8.49139      8.57265     10.84152        -0.017616     -0.002040      0.064416
