# total energy = -218.07331542 eV
 
CRYSTAL
PRIMVEC
0.050880 6.198723 6.367444 
6.243353 0.006459 6.412283 
4.178532 4.177831 -0.011899 
PRIMCOORD
36 1
Li	      8.29275      2.13804      6.40618         0.008143     -0.035682     -0.013937
Li	      4.22363      2.10086      2.17954        -0.000512     -0.000515      0.031064
Li	      8.32018      4.15582      4.27110        -0.022689     -0.004856     -0.010588
Li	      2.19490      2.05976      4.32961         0.009990     -0.014323      0.028010
Li	      8.25616      6.32137      6.37084         0.045107     -0.010599     -0.019612
Li	      6.30218      4.22846      6.41950        -0.005729      0.032735     -0.024828
Li	      2.15659      6.16100      4.23831        -0.032894      0.025943     -0.007578
Li	      4.29361      6.14599      6.40065        -0.010678      0.041678     -0.002009
Li	      4.22302      4.17248      8.42773        -0.001655      0.018069     -0.023447
Sc	      2.28749      6.30720      8.50619         0.090670      0.033761      0.032453
Sc	      6.33910      8.31044     10.65440         0.040120      0.022675      0.003461
Sc	      4.14044      8.18006      4.20077        -0.059949     -0.051958      0.032334
Ti	     10.35334      4.17587      6.41787        -0.139429      0.052066     -0.047777
Ni	      6.20241      2.08515      8.48209        -0.079483      0.075612     -0.005083
Ni	      2.09179      4.10674      2.10666        -0.008423     -0.057293      0.002311
Ni	      4.15730      4.18171      4.29813         0.065701      0.057233     -0.084356
Ni	      6.31905      8.29707      6.40895        -0.055976      0.013940     -0.041708
Ni	      6.25653      6.23161      8.42899         0.028983     -0.043617      0.124572
O	      2.02382      2.15829      2.07057         0.072494     -0.105854     -0.009898
O	      4.21196      4.21156      2.02510         0.071633     -0.110551     -0.052432
O	      4.19963      2.29794      4.26521         0.006846     -0.185541     -0.003462
O	      6.20410      4.18205      4.24374         0.083419     -0.007153     -0.014428
O	      6.26726      1.94751      6.40498        -0.016814     -0.147881     -0.083781
O	      8.44393      4.12646      6.56245         0.182308     -0.008076     -0.120314
O	      2.15467      4.12196      4.07271        -0.128372     -0.008982      0.086580
O	      4.16685      6.11494      4.13730        -0.018439      0.130799      0.059983
O	      4.01391      4.16781      6.29525         0.172719      0.013381      0.086141
O	      6.27511      6.41060      6.45028         0.006707     -0.155283     -0.128610
O	      6.24770      4.15158      8.51889        -0.100241      0.011510     -0.001817
O	      8.26545      6.04329      8.51952         0.028456      0.144578     -0.005693
O	      2.03479      6.05968      6.42361        -0.052161      0.142147      0.018395
O	      4.36801      8.37764      6.30890        -0.123272      0.078699      0.006442
O	      4.28810      6.28245      8.54413        -0.082271     -0.017695     -0.022733
O	      6.36276      8.30868      8.54032        -0.002573      0.078706      0.082998
O	      6.21675      6.18779     10.80779         0.019727     -0.006712      0.116167
O	      8.39287      8.27455     10.70925         0.008538     -0.000960      0.013179
