# total energy = -253.58666388 eV
 
CRYSTAL
PRIMVEC
0.056410 6.366921 6.431546 
6.390076 0.049665 6.438507 
4.272312 4.261455 0.020968 
PRIMCOORD
36 1
Li	      4.42694      8.44077      8.63470         0.019601      0.005466     -0.004359
Li	      6.43575      8.51251     10.53270        -0.033233     -0.006370      0.027801
Li	      2.13378      4.27423      2.33566         0.007536      0.022986     -0.037528
Li	      2.12007      2.21720      4.28097         0.017299     -0.028007      0.016698
Li	      8.59060      6.36197     10.63102        -0.020535     -0.031206     -0.023796
Li	      6.44273      8.45312      6.50624        -0.001804     -0.014942      0.028886
Li	      4.30790      6.43679      6.44961        -0.021580     -0.003357      0.014168
Li	      8.44807      8.51688      8.70326         0.004394     -0.007411      0.079257
Li	      6.42481      6.58249      8.62713        -0.011713      0.050108     -0.007487
Sc	      0.14776      6.30372      6.40584         0.045735     -0.023908     -0.049765
Sc	      8.44463      6.48034      6.51862        -0.007304      0.026056      0.020628
Sc	      6.34333      4.37223      6.48529        -0.046209      0.057324      0.094960
V	      6.50806     10.55650      8.60720         0.064542     -0.040713     -0.014293
V	      4.32518      6.43846     10.63074        -0.011094      0.005780     -0.032350
V	      4.28418      6.40351      2.19964        -0.007205      0.040457     -0.071405
Cr	      2.22100      8.47616      6.42179         0.007323     -0.020382     -0.046715
Cr	      4.20305      4.26988      4.28284         0.007227     -0.043247      0.034031
Cr	      0.10828      4.21809      4.25929         0.015823      0.007169     -0.002062
O	      2.04041      2.02269      1.98741         0.015840     -0.011805     -0.001931
O	      4.33130      4.30641      2.21749        -0.020715     -0.035150      0.010891
O	      4.26763      2.14601      4.35470        -0.019325      0.050459      0.014736
O	      6.33797      4.26544      4.33138        -0.022264      0.020154      0.014434
O	      6.45137      2.15872      6.47074         0.033127     -0.001922      0.029404
O	      8.54047      4.28023      6.36328        -0.019203     -0.034910      0.011194
O	      2.17669      4.23170      4.29595        -0.006592      0.006186      0.007812
O	      4.29636      6.36608      4.22513         0.018703      0.003113      0.046685
O	      4.30717      4.26000      6.30121         0.024776     -0.033227     -0.031785
O	      6.45507      6.35126      6.53770        -0.000939     -0.034094     -0.027341
O	      6.45467      4.18979      8.64345         0.004246      0.002603     -0.015566
O	      8.68527      6.41768      8.53101         0.002028     -0.024741      0.027544
O	      2.16567      6.48655      6.47225        -0.020789      0.024729     -0.024612
O	      4.23383      8.51638      6.34118        -0.007656      0.048809     -0.065157
O	      4.21396      6.41450      8.71345         0.014005      0.015494     -0.039276
O	      6.44516      8.62750      8.57475        -0.010231      0.034367     -0.007338
O	      6.42339      6.31070     10.76251        -0.009410     -0.014247      0.012319
O	      8.72109      8.67041     10.83038        -0.004404     -0.011620      0.011319
