# total energy = -241.82388998 eV
 
CRYSTAL
PRIMVEC
0.032521 6.368283 6.264895 
6.397576 0.044671 6.252681 
4.304491 4.277044 -0.009887 
PRIMCOORD
36 1
Li	      4.37071      4.30291      0.11790        -0.048195      0.057555     -0.014705
Li	      2.14633      2.11774      0.13874        -0.006610      0.044632     -0.041244
Li	      2.05210      0.07721      1.96572        -0.006577      0.025615      0.038982
Li	      4.21335      2.24118      1.94298        -0.089469      0.054821      0.030213
Li	     10.60647      6.37592      8.19152        -0.054736     -0.032986     -0.035579
Li	      8.61678      6.43315      6.41472         0.058391     -0.040230     -0.038307
Li	      8.57551      6.43829     10.28426         0.012566     -0.005603     -0.003878
Li	      8.57013      8.32355      8.30218         0.034030     -0.083608      0.007479
Li	      6.61612      6.43989      8.26616         0.025859     -0.063972      0.039111
Sc	      2.17718      2.13020      4.06562        -0.035341     -0.011569     -0.014950
Sc	      4.22136      4.31185      4.05103         0.023571      0.026748      0.071801
Sc	      6.40582      4.34694     10.41914        -0.029911      0.008398     -0.068647
V	      4.28928      6.39293     10.30989         0.003621     -0.003614     -0.025972
V	      6.49937      8.44741     10.38167        -0.025026      0.020670      0.083844
V	      6.48393      4.26359      6.39363        -0.038793     -0.064709      0.035924
V	      4.22304      6.43709      6.42876         0.130738     -0.182766     -0.035798
Co	      8.57308      4.34321      8.26218        -0.009489      0.012334     -0.042524
Cu	      6.36536      8.59766      6.51892        -0.065555      0.077303      0.116723
O	      2.14096      2.26831      2.09483        -0.019507     -0.061327     -0.007269
O	      4.26880      4.29790      2.07384        -0.026083     -0.015754     -0.109038
O	      4.32799      2.12398      4.17966         0.003554     -0.012514     -0.046803
O	      6.41338      4.24860      4.18273         0.029977      0.029322     -0.086362
O	      6.42927      2.29236      6.06410         0.098012     -0.077976      0.007864
O	      8.31794      4.35302      6.05247         0.206516     -0.018415     -0.035338
O	      2.15612      4.20058      4.22046        -0.032570      0.042554      0.172398
O	      4.37286      6.41493      4.27745        -0.006269      0.044701      0.066188
O	      4.54825      4.33922      6.24983        -0.064143      0.037838     -0.000332
O	      6.28643      6.27356      6.26602        -0.013679      0.182609      0.027821
O	      6.46423      4.26613      8.31488         0.012371     -0.006015      0.062240
O	      8.58738      6.29026      8.32577        -0.026755     -0.008822      0.012788
O	      2.42789      6.34540      6.26934        -0.147401     -0.072870      0.026055
O	      4.28452      8.39799      6.22794         0.058261      0.079090      0.081254
O	      4.30157      6.43981      8.35499        -0.023688      0.040988     -0.060013
O	      6.48911      8.53810      8.60042         0.026959      0.010808     -0.224377
O	      6.37144      6.47107     10.50858         0.004297     -0.026832      0.013134
O	      8.54582      8.65298     10.40294         0.041074     -0.006404     -0.002683
