# total energy = -245.41967928 eV
 
CRYSTAL
PRIMVEC
0.008442 6.333052 6.423465 
6.313769 -0.022842 6.455338 
4.199407 4.233357 -0.005341 
PRIMCOORD
36 1
Li	     10.39965      4.26928      6.57524        -0.000222     -0.051651      0.062437
Li	      6.22181      4.22024      2.25601         0.017636      0.048385      0.014634
Li	      4.22646      2.20328      2.22481        -0.035845     -0.021118     -0.027060
Li	      4.26854      6.35171     10.74285         0.025133      0.003829     -0.005351
Li	      6.21082      8.40794     10.63134        -0.040658     -0.027096     -0.036837
Li	      2.15421      4.21101      2.06971        -0.009854     -0.013827     -0.073919
Li	      4.28400      2.00660      6.35365         0.020855     -0.028361     -0.033262
Li	      6.29311      4.25694     10.67916         0.004856     -0.008700     -0.000855
Li	      8.37972      8.46076      8.58324         0.037097     -0.012660     -0.059659
Sc	      6.31043      4.18698      6.39661         0.018966      0.106889     -0.133575
Sc	      2.09503      6.30874      4.26052        -0.196846      0.076932     -0.041805
Sc	      6.27886      8.48640      6.53878         0.029341     -0.054969      0.019563
V	      2.15695      8.48465      6.42361         0.124724      0.078982      0.070195
V	     10.47780      6.29831      8.56219         0.253952     -0.035507      0.085765
V	      2.20511      2.11727      4.23137        -0.095409     -0.046587     -0.274201
V	      6.24322      6.31134      8.63157         0.058136     -0.062341      0.111822
Co	      4.22293      4.16446      4.20310         0.133919     -0.153257      0.004984
Co	      4.21728      6.35080      6.43884        -0.012099     -0.007906      0.092261
O	      2.00841      2.10749      2.04557         0.195027     -0.018938     -0.148145
O	      4.16766      4.36982      2.17678        -0.093068      0.052453      0.024446
O	      4.12838      2.10684      4.26371        -0.062984      0.172769      0.040316
O	      6.32729      4.34164      4.29598        -0.050266      0.042739      0.010108
O	      6.38938      2.11494      6.49534         0.012151      0.036089      0.257080
O	      8.40942      4.06278      6.44006        -0.022107     -0.060322      0.025114
O	      2.06475      4.18296      4.38628        -0.009586     -0.029523     -0.039204
O	      4.26162      6.35826      4.23244        -0.020356      0.094527      0.045012
O	      4.19815      4.28419      6.37336        -0.091077      0.052109      0.019081
O	      6.38958      6.34160      6.45887        -0.048637      0.000364     -0.016790
O	      6.29695      4.21831      8.52202        -0.013031      0.004497      0.047013
O	      8.36761      6.33294      8.63209        -0.187344     -0.018729      0.043944
O	      2.08468      6.35858      6.40509         0.021723     -0.044837      0.045716
O	      4.13764      8.40426      6.52744         0.026986     -0.004921     -0.044158
O	      4.44732      6.26027      8.52348         0.038595      0.021507     -0.029411
O	      6.34822      8.29965      8.57056        -0.007508     -0.009677     -0.058721
O	      6.36519      6.29931     10.53177         0.022783     -0.021330      0.016626
O	      8.45065      8.36035     11.03624        -0.044981     -0.059814     -0.013164
