# total energy = -248.65701188 eV
 
CRYSTAL
PRIMVEC
0.021055 6.349433 6.425726 
6.423127 -0.013858 6.460749 
4.264388 4.238525 0.008531 
PRIMCOORD
36 1
Li	      2.13147      2.10513      0.20462         0.006932     -0.021170      0.022077
Li	      6.34257      4.37407      2.25245         0.062308     -0.080177      0.005031
Li	      4.12787      2.16759      2.36523        -0.031426     -0.000296      0.023156
Li	      4.22404      0.15653      4.26814        -0.006797     -0.018148     -0.021173
Li	      6.24170      2.18038      4.27218        -0.003967      0.018736     -0.011921
Li	      0.21445      2.01416      2.22356        -0.007239     -0.013385      0.017920
Li	      2.28195      2.11230      4.10549        -0.008081      0.056808      0.048906
Li	      4.25948      4.09756      4.11058        -0.055954      0.009487     -0.013274
Li	      2.11622      4.26669      6.41581        -0.033452      0.037272      0.009071
Sc	      4.27722      4.22659      0.12826         0.060736     -0.007468     -0.019643
Sc	      4.21545      6.41629      6.42889        -0.048784      0.039003      0.003669
Sc	      6.38625      6.44029      8.65106        -0.009567      0.013330      0.061716
V	      6.47117      4.15808      6.28713        -0.105127     -0.087386     -0.031949
V	      0.05566      4.19294      4.24029        -0.064229      0.011620     -0.006973
V	      2.17821      6.31147      4.24824         0.017864      0.077577     -0.011932
V	      8.53000      8.48054      8.63663        -0.016560      0.059109      0.061457
Cr	      4.27018      2.11887      6.36632         0.020238      0.056427     -0.067857
Co	      2.21459      4.06601      2.16675        -0.103404      0.454155      0.058397
O	      2.15385      2.11472      2.14652         0.078698      0.359904      0.075284
O	      4.26770      4.22431      2.09830        -0.122166     -0.127245     -0.011483
O	      4.26760      2.12604      4.43927        -0.010142      0.021416      0.092717
O	      6.43605      4.20726      4.55403        -0.022320      0.024533      0.023440
O	      6.30675      2.17147      6.44143         0.062097     -0.066638      0.015301
O	      8.47048      4.31339      6.46003         0.117348     -0.140182      0.037209
O	      2.05688      4.32214      4.28637         0.071166     -0.234487     -0.098881
O	      4.22841      6.39730      4.33889         0.002003     -0.046505     -0.002951
O	      4.43218      4.18032      6.55249        -0.035843      0.005947      0.055609
O	      6.44449      6.20697      6.51926         0.002568      0.074948     -0.018122
O	      6.38654      4.24836      8.55423         0.035447     -0.038676     -0.065901
O	      8.51033      6.36122      8.58503         0.053198     -0.327242     -0.062533
O	      2.13884      6.35665      6.29727         0.043581     -0.002934      0.039756
O	      4.29649      8.47397      6.31327        -0.003990     -0.066746     -0.030640
O	      4.32858      6.31681      8.53550        -0.017437      0.013531     -0.039435
O	      6.56793      8.45562      8.58026         0.006576     -0.002097      0.022453
O	      6.48842      6.26615     10.74706         0.047763     -0.025214     -0.068987
O	      8.70515      8.34111     10.61705         0.017963     -0.027804     -0.089513
