# total energy = -245.18999122 eV
 
CRYSTAL
PRIMVEC
0.023786 6.396776 6.403705 
6.458918 0.037142 6.390317 
4.319738 4.269475 0.010887 
PRIMCOORD
36 1
Li	      6.62304      8.43077     10.69127         0.030305      0.004048     -0.003305
Li	     10.46399      6.61903      8.52699         0.033930     -0.021595      0.061495
Li	      8.47239      4.57194      8.51917        -0.002445     -0.038643      0.031976
Li	      8.62021      6.44171      6.71609        -0.059951      0.032629     -0.040912
Li	      6.43061      4.36055     10.42834        -0.049883      0.007044     -0.065531
Li	      8.55773      6.48267     10.46719        -0.023844     -0.009631      0.086879
Li	      2.20042      4.26677      6.36992         0.003131     -0.019919     -0.029848
Li	      8.78872      8.27427      8.59432         0.059114      0.100984      0.037367
Li	      6.74975      6.33059      8.50099        -0.087884     -0.024944     -0.005024
Sc	      2.17963      6.36597      8.47701        -0.029451      0.025018      0.044328
Sc	      8.73962     10.59181     10.71021        -0.055905     -0.022553      0.061308
Sc	      2.11765      2.27777      4.26478         0.104970     -0.052882     -0.110851
V	      6.44129      0.15632      6.36932         0.020659      0.101198      0.018037
V	      4.42306      8.52712      8.49438        -0.097082     -0.076233      0.041721
V	      4.27406      4.31179      4.27515         0.055187     -0.192830      0.215146
V	      4.31586      6.39522      6.37969        -0.014942     -0.015202     -0.130400
Cr	      6.47919      4.27148      6.52224         0.031938     -0.035557     -0.142257
Cu	      8.58692      2.18782      6.35519         0.011626      0.026299      0.056490
O	      8.60892      6.44099      8.57391        -0.000484      0.089564     -0.042030
O	      2.37526      2.06878      2.10131         0.010661     -0.027710      0.110946
O	      4.36933      4.13286      2.08807         0.037989      0.118947      0.035737
O	      4.24919      2.22143      4.10521        -0.013982     -0.090696     -0.020300
O	      6.42661      4.32296      4.26479         0.066380      0.021109      0.046038
O	      6.51207      2.13302      6.43234        -0.008377     -0.164325      0.012355
O	      8.59079      4.39482      6.34411         0.047374      0.256244      0.047597
O	      2.33351      4.23517      4.32549        -0.144344      0.039552      0.022879
O	      4.37923      6.32107      4.34681         0.004424      0.272342      0.109295
O	      4.43656      4.38208      6.35104         0.088049     -0.092279     -0.155925
O	      6.37465      6.31403      6.35203        -0.050047     -0.059612     -0.011379
O	      6.48196      4.27986      8.42758        -0.028330      0.042953      0.064402
O	      2.19241      6.32687      6.46899        -0.023911     -0.245277     -0.005955
O	      4.32078      8.51356      6.53147        -0.024865      0.172572     -0.037107
O	      4.27572      6.51092      8.50147        -0.039963     -0.131053     -0.134814
O	      6.24058      8.54665      8.57064         0.058756      0.040281     -0.044034
O	      6.42595      6.41318     10.84235         0.058015     -0.011864      0.051312
O	      8.62696      8.61269     10.76768         0.033182     -0.017980     -0.175639
