# total energy = -250.58671401 eV
 
CRYSTAL
PRIMVEC
-0.016464 6.445467 6.445565 
6.204126 0.023448 6.405322 
4.160363 4.293845 -0.008028 
PRIMCOORD
36 1
Li	      6.20760      0.07584      6.36555         0.039683      0.009512     -0.053982
Li	      6.23835     10.71664      8.58424        -0.002855     -0.086517      0.063887
Li	      6.22368      8.60660     10.69003         0.016795      0.020969     -0.032136
Li	      6.15767      2.27174      8.49752        -0.046893      0.047886     -0.031515
Li	      6.14279      4.30877      6.51054        -0.031641     -0.039357     -0.023478
Li	      6.13850      4.36239     10.59605         0.045551      0.019596     -0.065072
Li	      4.14686      6.45152      6.49651        -0.046038      0.013381      0.026292
Li	      4.25627      4.38042      8.51810        -0.042683      0.060128     -0.066090
Li	      6.13293      6.36602      8.55328         0.006385     -0.015948      0.041685
Sc	      8.14614      4.32508      8.46394         0.020799      0.212893      0.129498
Sc	      8.22100      6.58624     10.62422        -0.077401     -0.054821     -0.035071
Sc	      6.16502      8.63650      6.52384         0.058334      0.190268     -0.013824
V	      2.01477      2.09960      0.02009        -0.019051     -0.103546     -0.146654
V	      4.18727      8.55452      8.59416         0.161442     -0.036855      0.141141
V	      6.14474      6.42696      4.29511         0.539138      0.342233      0.170813
V	      4.25207      4.30049      4.26899        -0.275332     -0.015745      0.050920
Cr	      4.19982      2.16811      6.45154         0.235453      0.099152     -0.015138
Fe	      4.23478      6.37996     10.66667        -0.239170      0.061638      0.062101
O	      2.12828      2.16537      2.11323        -0.113597     -0.047614      0.441622
O	      4.11689      4.14399      2.29771        -0.064463     -0.138038     -0.074802
O	      4.09205      2.12526      4.35067         0.109866     -0.020177      0.024825
O	      6.22896      4.42705      4.27569         0.040352     -0.180150      0.025490
O	      6.23297      2.14535      6.42978        -0.105405     -0.030013      0.053574
O	      8.30074      4.33597      6.35216        -0.005278      0.004706      0.056744
O	      2.13472      4.27489      4.27422        -0.138296      0.232310     -0.034752
O	      4.17088      6.38519      4.27741         0.051822     -0.202951     -0.026076
O	      4.13010      4.18728      6.30485        -0.106665     -0.146417      0.075808
O	      6.32206      6.52662      6.34480        -0.192687     -0.135790     -0.498270
O	      6.20666      4.31034      8.57813         0.108571     -0.001157     -0.089107
O	      8.29813      6.42119      8.48725        -0.012575     -0.054688     -0.038231
O	      2.05697      6.45260      6.32997         0.034809      0.047058      0.041477
O	      4.06928      8.55551      6.52633         0.009209     -0.024912      0.021844
O	      4.11617      6.54894      8.72160        -0.023631      0.032321     -0.144164
O	      6.15419      8.63897      8.53781        -0.066044     -0.027594     -0.081068
O	      6.17698      6.46046     10.69569         0.118966      0.002701      0.025560
O	      8.26939      8.65892     10.82204         0.012534     -0.034461      0.016149
