# total energy = -247.69739295 eV
 
CRYSTAL
PRIMVEC
0.006708 6.337103 6.358622 
6.439225 0.011812 6.354245 
4.308889 4.237853 -0.007896 
PRIMCOORD
36 1
Li	      2.18256      8.30350      6.37476         0.007511     -0.020950      0.065730
Li	      2.16779      6.38232      8.39286         0.035403      0.048947     -0.062506
Li	      6.48748      8.43571     10.58704        -0.029184     -0.012262      0.007952
Li	      0.03332      2.14864      2.17388         0.018439      0.079819     -0.004697
Li	      2.06301      2.15467      4.18740        -0.004207      0.053315     -0.062031
Li	      4.28875      8.31571      4.28063         0.011978     -0.023658      0.024641
Li	      2.26218      6.42632      4.28426         0.100363      0.023137     -0.002213
Li	      4.19715      6.43987      6.22933        -0.086862      0.102897     -0.088208
Li	      8.58910      8.44875      8.49837        -0.048585     -0.005474     -0.007929
Sc	      4.22783      2.07897      2.10603         0.020251     -0.071706      0.012449
Sc	      4.36695      4.40724      4.18972         0.021322     -0.017215     -0.006785
Sc	      2.10664      4.32921      6.29656         0.036482     -0.021292     -0.027496
V	      8.61570     10.41475     10.58855        -0.087140      0.186873     -0.031182
V	      2.12877      4.21935      2.16311         0.012355     -0.005643     -0.072759
V	      6.43680      4.17762      6.35119         0.016280      0.037891      0.021188
V	      6.47481      6.34708      8.54009        -0.031016     -0.016620      0.096669
Cr	      4.31183      2.10501      6.33993         0.001782      0.014555     -0.029878
Ni	      6.50752      6.40694     12.67872        -0.039176     -0.045750      0.003925
O	      2.19506      2.23779      2.09828         0.007524     -0.030768      0.001057
O	      4.21422      4.20619      2.11273         0.006491      0.039709      0.010609
O	      4.30142      2.00782      4.27188         0.005217      0.045337      0.061727
O	      6.53219      4.25508      4.34422         0.048602     -0.016580     -0.040539
O	      6.31083      2.19427      6.36478         0.030748      0.000204     -0.009016
O	      8.60349      4.31668      6.29615        -0.064741      0.002268      0.000346
O	      2.24243      4.23705      4.23058         0.024294      0.005732      0.055567
O	      4.32596      6.32993      4.24015        -0.010515      0.082398     -0.009510
O	      4.32007      4.13195      6.31017        -0.028407      0.035249      0.070935
O	      6.56509      6.27622      6.45668        -0.018555      0.032942      0.027566
O	      6.54316      4.31160      8.38221         0.051405     -0.056702      0.053500
O	      8.55810      6.26773      8.36390         0.009103      0.079496      0.056743
O	      2.10411      6.33055      6.36747         0.138161      0.009329     -0.020703
O	      4.36822      8.49689      6.39693        -0.051282     -0.132465     -0.066099
O	      4.35306      6.34720      8.63726        -0.098966     -0.091835     -0.025703
O	      6.41489      8.34807      8.40979         0.021065      0.032005      0.037759
O	      6.28843      6.35564     10.55611        -0.014140     -0.035178     -0.094531
O	      8.56947      8.66332     10.60841        -0.012002     -0.308006      0.053419
