# total energy = -239.93473917 eV
 
CRYSTAL
PRIMVEC
0.014264 6.373803 6.474339 
6.226945 -0.032184 6.522286 
4.146293 4.276204 -0.017334 
PRIMCOORD
36 1
Li	      2.07017      8.43997      6.48776        -0.015910      0.001273     -0.001438
Li	      2.06861      6.34844      8.55020         0.011131     -0.008331      0.034898
Li	      8.28182      4.26312      8.69538        -0.022508     -0.036345      0.060055
Li	      4.06341      4.34422      4.19192         0.044985     -0.076004     -0.181182
Li	      8.28077      6.35883      6.58848         0.012334      0.043466      0.044572
Li	      2.19499      6.30364      4.39211        -0.041140      0.010548      0.023701
Li	      2.15072      4.36632      6.43146         0.035770     -0.014861      0.002820
Li	      3.98972      6.34775      6.42184         0.086038     -0.026632     -0.006616
Li	      6.31480      6.31762      8.64441        -0.008709      0.073845      0.058658
Sc	      0.07451      0.05871      0.07125        -0.018908      0.089302      0.084003
Sc	      4.13122      8.42805      8.51131        -0.016312     -0.068056      0.093711
Sc	      6.21292      2.19388      4.35367        -0.123405      0.120339     -0.027037
V	      4.10771      0.00879      4.31813        -0.105683      0.057549     -0.028564
V	      4.17753      8.52257      4.35239        -0.013198     -0.011913      0.061311
V	      6.16154      6.41940      4.39747         0.186714     -0.158425     -0.031118
V	      4.20615      4.17199      8.55585        -0.111946      0.203998     -0.152381
Cu	      4.16539      6.33782      2.17970         0.122687     -0.085276     -0.064333
Cu	      6.30677      4.23092      6.58229        -0.082827      0.041032     -0.106973
O	      2.03337      2.05453      2.39411         0.131755      0.102230     -0.100111
O	      4.08293      4.12029      2.08754         0.005279      0.027986     -0.003732
O	      4.10625      2.11746      4.21739         0.027473     -0.118892     -0.044351
O	      6.23427      4.29443      4.24476         0.112059      0.012503     -0.201100
O	      6.25525      2.16010      6.44807        -0.039890     -0.043597     -0.224085
O	      8.24800      4.27517      6.35865         0.053984     -0.023012     -0.017087
O	      2.00665      4.10466      4.37083        -0.081892      0.051481     -0.028971
O	      4.21903      6.44471      4.31259        -0.028788      0.186474      0.300290
O	      4.27689      4.27349      6.75792        -0.065273      0.048779      0.062682
O	      6.27325      6.27316      6.20661         0.001524     -0.005093      0.130696
O	      6.18891      4.31715      8.88720        -0.010433     -0.048832      0.146753
O	      8.43885      6.54167      8.67482        -0.188536     -0.106096      0.090758
O	      2.05580      6.38616      6.45768        -0.058584     -0.018076     -0.029410
O	      4.11240      8.54424      6.41904        -0.000221      0.043767     -0.015587
O	      4.17570      6.29971      8.76063         0.051340     -0.017030     -0.022299
O	      6.31647      8.41015      8.70089        -0.020172     -0.009802      0.021913
O	      6.13634      6.38327     10.91031         0.141194     -0.076638     -0.021384
O	      8.32889      8.58469     10.65661         0.030066     -0.161659      0.090940
