# total energy = -243.74631195 eV
 
CRYSTAL
PRIMVEC
0.021224 6.306181 6.523200 
6.274183 0.025746 6.518917 
4.194639 4.213158 0.005364 
PRIMCOORD
36 1
Li	      2.16121      8.37433      6.49104         0.019461     -0.032711      0.016589
Li	      4.22338      8.35053      8.71784         0.017162     -0.013482      0.068718
Li	      8.31039      4.37354      8.73775         0.018543      0.038231     -0.037374
Li	      6.26291      6.37380      4.40708        -0.008964     -0.045584      0.005967
Li	      8.29892      6.41829      6.63076        -0.001031      0.002715     -0.013833
Li	      8.39097      6.32269     10.70538        -0.035971      0.012079     -0.100230
Li	      4.19668      6.36573      6.50366        -0.031287     -0.017083     -0.026097
Li	      8.32609      8.38568      8.71081         0.016130      0.043655      0.044007
Li	      6.44286      6.37786      8.64409        -0.057230      0.069312     -0.018263
Sc	      4.18585     10.44022      6.56628         0.030501     -0.050582      0.007570
Sc	     10.35345      6.36218      8.69854        -0.026879      0.022715     -0.002780
Sc	      6.25396      4.39883      6.60468        -0.040896      0.041218     -0.021507
V	      2.20266      6.32947      8.65848         0.061304     -0.235561      0.040612
V	      4.19183      0.08374      4.32820        -0.024301     -0.018297     -0.012822
V	      0.07183      4.15782      4.30677        -0.021281      0.080532      0.030038
V	      4.05344      4.19522      4.34023        -0.000493      0.016705      0.006323
Fe	      6.36628      8.40316     10.89039         0.054562      0.010404     -0.002682
Cu	      6.34505      8.32578      6.57574         0.003322      0.022447      0.052438
O	      2.06944      1.83132      2.16181         0.043288      0.131319      0.021871
O	      4.23167      4.18856      2.17104        -0.032325     -0.005023     -0.008761
O	      4.29590      2.11574      4.34790        -0.095135      0.042081      0.009419
O	      6.23555      4.18315      4.36274        -0.077805      0.050321      0.004045
O	      6.34107      2.11172      6.47646         0.007580      0.014127      0.044172
O	      8.36428      4.23420      6.38767         0.002060     -0.012149      0.083267
O	      2.08524      4.15814      4.20928        -0.000772      0.013679     -0.186615
O	      4.16235      6.28566      4.27495         0.024603     -0.015503     -0.050009
O	      4.18244      4.23055      6.36589         0.056002     -0.001757      0.030354
O	      6.27984      6.37269      6.55577        -0.010925     -0.105673     -0.054351
O	      6.30003      4.21685      8.70266         0.033978     -0.010264     -0.006462
O	      8.40942      6.36415      8.67248         0.013976     -0.032901     -0.016976
O	      2.11116      6.14497      6.72754         0.042347      0.095336     -0.043836
O	      4.26485      8.40421      6.35477        -0.115438     -0.030523     -0.002655
O	      4.11125      6.33983      8.86113         0.051986     -0.014377      0.040960
O	      6.31452      8.60948      8.93185         0.003517      0.030753      0.074806
O	      6.31424      6.35378     10.93469         0.038984     -0.025536      0.010329
O	      8.44422      8.55977     10.89276         0.041428     -0.070621      0.013766
