# total energy = -244.10003527 eV
 
CRYSTAL
PRIMVEC
0.027483 6.410350 6.302518 
6.422408 0.014750 6.315036 
4.281495 4.281914 0.009614 
PRIMCOORD
36 1
Li	      4.29361      2.13750      2.18438         0.018901      0.003011      0.039909
Li	      8.54031      4.28817      4.22233        -0.005311     -0.008541      0.058275
Li	      6.43754      8.57329     10.48697         0.009915      0.000011      0.033960
Li	      6.39568      2.31504      8.39355         0.019561      0.040790     -0.022718
Li	      8.44519      4.32768      8.40891        -0.086586      0.040835     -0.039525
Li	      8.59048      6.42470      6.37488         0.010693     -0.015062     -0.002559
Li	      6.34927      4.31400      6.37230        -0.076853     -0.017250     -0.061777
Li	      6.41814      4.28025     10.39713        -0.027460      0.007003     -0.023622
Li	      4.38288      4.23825      8.40833        -0.021018     -0.031172     -0.020454
Sc	      8.60694      2.23388      6.33808        -0.024082      0.132434     -0.003586
Sc	      8.63096      6.48120     10.40615        -0.046084      0.048094     -0.111025
Sc	      6.37365      6.29856      8.42055         0.011633      0.003604      0.042209
V	      6.36204      0.11191      6.33164        -0.114274      0.075101      0.034673
V	      6.52097     10.65426      8.45963        -0.011073     -0.006312      0.078646
V	      6.43739      8.55058      6.33824         0.042297     -0.038631     -0.011967
V	      4.29709      4.22244      4.19100         0.108167     -0.088626     -0.049937
Fe	      2.20119      2.10180      4.17576        -0.038441     -0.004861      0.022331
Ni	      4.33175      6.37472      6.31547        -0.039285      0.037282     -0.001659
O	      2.15558      2.01586      2.15870         0.032649      0.011607     -0.073250
O	      4.43648      4.27475      2.08488        -0.002048     -0.001262     -0.019670
O	      4.17843      2.25466      4.21049         0.065011     -0.028882      0.045777
O	      6.39763      4.35224      4.21837        -0.034834     -0.049819      0.073817
O	      6.49267      1.92849      6.34344         0.063079     -0.021267      0.003105
O	      8.75837      4.24886      6.35403         0.063622     -0.042950      0.025962
O	      2.17615      4.22362      4.26466        -0.022569      0.023784     -0.021715
O	      4.34223      6.32462      4.24805        -0.034588      0.029497     -0.121229
O	      4.17265      4.31799      6.19894        -0.056375     -0.056623      0.023960
O	      6.36573      6.47392      6.27461         0.052393      0.009881      0.008754
O	      6.41854      4.33262      8.36430        -0.030336      0.058572     -0.001584
O	      8.47297      6.42526      8.44592        -0.001542      0.009280      0.013184
O	      2.13645      6.41338      6.32037        -0.009144     -0.004240     -0.027643
O	      4.36138      8.72667      6.32193         0.020439     -0.038012     -0.006974
O	      4.24501      6.42720      8.35369         0.059305      0.010316      0.118357
O	      6.43714      8.62656      8.31380         0.019011     -0.065266      0.025825
O	      6.48947      6.43381     10.59757         0.039699      0.015712      0.016429
O	      8.61196      8.49047     10.62776         0.045526     -0.038038     -0.044280
