# total energy = -247.13022886 eV
 
CRYSTAL
PRIMVEC
0.007331 6.368688 6.370825 
6.449851 0.019568 6.358574 
4.304368 4.242292 0.008507 
PRIMCOORD
36 1
Li	      0.09127      6.25988      6.27230         0.027504     -0.024721     -0.025342
Li	      2.25292      8.42135      6.36330         0.014641      0.018162     -0.002214
Li	      6.43496      2.14185      8.39636        -0.036845      0.001476     -0.035365
Li	      6.45350      6.41263      4.37167        -0.002731      0.038906      0.027287
Li	      8.58058      6.37467      6.36425        -0.007095      0.017360      0.029382
Li	      4.29953      8.51835      4.47183        -0.072577      0.048429     -0.019864
Li	      2.15202      6.33762      4.41087         0.011471     -0.016311      0.043081
Li	      2.02835      4.29403      6.22292        -0.013318      0.000614      0.006223
Li	      4.26503      6.48704      6.29398        -0.021406     -0.024512     -0.010956
Sc	      6.49186      2.08335      4.39691         0.024710     -0.010863      0.071281
Sc	      2.17200      4.22378      2.12642         0.000731     -0.028573      0.104116
Sc	      6.41644      6.38135      8.43460         0.079009     -0.043263     -0.069577
V	      4.29696      8.49368      8.38320         0.005787      0.062377     -0.023219
V	      4.25390      4.39480      4.32192        -0.049333      0.082764      0.011651
V	      6.48908      4.26921      6.35848        -0.106512     -0.014929      0.062986
V	      8.61220      8.42586      8.45424         0.037064     -0.067713     -0.045084
Fe	      2.11965      6.45793      8.29835        -0.056442     -0.032302      0.151573
Fe	      8.60333      4.27205      4.32775        -0.001238     -0.002261      0.009060
O	      2.29172      2.09059      2.14766        -0.088706      0.072661     -0.018702
O	      4.32674      4.21984      2.24503        -0.014921      0.059384     -0.022477
O	      4.37472      2.21001      4.12785         0.024987     -0.042302      0.126955
O	      6.33978      4.23271      4.23331         0.080231     -0.014449     -0.092027
O	      6.46458      2.25417      6.37332         0.013306     -0.014051     -0.031179
O	      8.50954      4.28190      6.42821         0.074122      0.021247     -0.086750
O	      2.32851      4.20778      4.22456        -0.026961      0.056438      0.012168
O	      4.32595      6.14412      4.26055        -0.034702      0.044824     -0.000200
O	      4.41649      4.22940      6.35125         0.024820     -0.022573      0.005478
O	      6.45255      6.26709      6.40490         0.002478      0.001583      0.011650
O	      6.45125      4.26728      8.47167        -0.007064      0.000661      0.018456
O	      8.53283      6.41923      8.47693         0.002132     -0.003342      0.021671
O	      2.11921      6.39398      6.46404         0.024073     -0.025771     -0.235471
O	      4.32797      8.49232      6.48191        -0.032932      0.004588     -0.120791
O	      4.23006      6.31714      8.46413         0.071670     -0.040133      0.014770
O	      6.44047      8.53524      8.50726         0.020225     -0.025430      0.010898
O	      6.44491      6.42506     10.56455         0.031301     -0.063431      0.040421
O	      8.57686      8.56329     10.44377         0.002521     -0.014548      0.060109
