# total energy = -240.94968840 eV
 
CRYSTAL
PRIMVEC
0.020909 6.256897 6.354933 
6.467057 -0.006309 6.381303 
4.298751 4.176490 0.008595 
PRIMCOORD
36 1
Li	      4.35497     10.36141      6.43326         0.023537     -0.015612      0.040043
Li	      6.40019      4.18769      2.17926        -0.050916      0.053887      0.000462
Li	      4.32444      2.14736      2.11939         0.067038      0.039301      0.001923
Li	      2.14896      4.14917      2.13481         0.026966      0.049033      0.056468
Li	      2.28861      2.05435      4.16652         0.052211      0.023863     -0.069834
Li	      4.28840      4.13410      4.27024        -0.081169      0.026749     -0.019539
Li	      6.44271      4.19006      6.38200        -0.017082      0.005055     -0.039415
Li	      4.32649      8.32357      4.24815         0.056376      0.006700      0.007757
Li	      6.44418      8.34461      6.45363        -0.003492      0.019307      0.040469
Sc	      2.23045      2.16830      0.06430         0.042875      0.028642      0.054833
Sc	      6.36644      2.15301      4.26075        -0.040785      0.032408     -0.034716
Sc	      4.39878      6.20259      6.35702         0.007065     -0.000452     -0.038079
V	      8.55745      4.19506      4.23642         0.067517      0.007716     -0.020889
V	      4.34156      6.21226      2.11794         0.025309     -0.034673      0.029890
V	      2.17208      6.09232      4.26577        -0.046543     -0.276491      0.037570
V	      6.50009      6.18015      8.44978        -0.004811     -0.014507      0.035058
Ni	      4.28287      2.12671      6.34027         0.015996     -0.051464     -0.024004
Ni	      8.61046      8.32252      8.46896        -0.011632      0.017565     -0.017534
O	      1.98183      2.15860      2.10455         0.018682     -0.045670      0.029432
O	      4.28696      4.42628      2.13795         0.029453      0.039272     -0.008518
O	      4.31960      2.09636      4.25509         0.067845     -0.058736     -0.145786
O	      6.60702      4.17561      4.20606        -0.038904     -0.034548     -0.018559
O	      6.47538      2.11161      6.45336         0.105850      0.014582     -0.017420
O	      8.68767      4.22421      6.21530        -0.026901     -0.141673      0.087387
O	      2.11427      4.34964      4.22750         0.015511      0.200042      0.033258
O	      4.15038      6.27731      4.18688        -0.088772     -0.031436      0.006444
O	      4.31594      4.15506      6.40080        -0.001761      0.162298     -0.141733
O	      6.48769      6.24031      6.46935        -0.108928     -0.023395     -0.019852
O	      6.42002      4.09509      8.51914         0.065102     -0.018876     -0.027240
O	      8.66327      6.26829      8.57719        -0.040881     -0.177128      0.091356
O	      2.22691      6.29942      6.22348        -0.037127     -0.025676     -0.015597
O	      4.26328      8.29491      6.42512        -0.008181      0.018123      0.008540
O	      4.40441      6.19705      8.52352        -0.018573      0.173851     -0.008856
O	      6.51800      8.21087      8.55825        -0.130831      0.045402     -0.035444
O	      6.51432      6.24322     10.50231         0.004404      0.000321      0.078545
O	      8.54872      8.26469     10.64033         0.065553     -0.013778      0.063580
