# total energy = -249.88115886 eV
 
CRYSTAL
PRIMVEC
0.035493 6.428524 6.338554 
6.429033 0.047748 6.326966 
4.323807 4.315661 -0.006047 
PRIMCOORD
36 1
Li	      8.56504      2.29687      6.23273        -0.038811     -0.015724      0.022787
Li	      8.64515      4.29196      4.33786        -0.018828     -0.042963     -0.010027
Li	      2.26280      2.17758      4.34523         0.043220      0.030917     -0.025620
Li	      8.45483      6.48050      6.32254         0.063892     -0.019711      0.030990
Li	      6.57333      4.45720      6.24962         0.038412      0.020627     -0.003562
Li	      6.40020      4.44215     10.57540        -0.042446      0.044640     -0.014559
Li	      6.57027      8.48584      6.31112         0.008703      0.031430     -0.022281
Li	      8.59743      8.58820      8.39000         0.004221     -0.015895     -0.049262
Li	      6.51195      6.51318      8.35039        -0.010430      0.056768     -0.002904
Sc	      2.22489      6.40846      8.41539         0.039026     -0.007635      0.035684
Sc	      4.28638      2.15184      2.14074        -0.030604     -0.079006      0.002818
Sc	      4.50093      6.46992      6.25263         0.077775     -0.009346      0.031067
V	     10.66453      4.31457      6.32025        -0.008642      0.045965     -0.030460
V	      6.45355      2.16193      4.26186         0.007628     -0.012403      0.062606
V	      6.42352      2.37935      8.41266        -0.013764      0.103709     -0.043639
V	      4.30188      4.29818      4.32134         0.009647     -0.007944      0.033179
V	      8.58306      6.53400     10.54825         0.016096     -0.024807     -0.062012
Co	      8.56993      4.35937      8.39830        -0.078112      0.039991      0.001280
O	      2.08679      2.12437      2.15721        -0.043427     -0.078144      0.015185
O	      4.36673      4.37631      2.15471        -0.023451     -0.008363      0.007548
O	      4.36936      2.20581      4.21929        -0.004317      0.006314     -0.026469
O	      6.36238      4.20467      4.18226         0.005983     -0.026044     -0.000844
O	      6.45791      2.02836      6.45652         0.006452      0.013529      0.000317
O	      8.70519      4.30303      6.39020         0.044427     -0.003618      0.019507
O	      2.29782      4.42516      4.13050         0.002673      0.011800      0.007194
O	      4.28576      6.43515      4.12842         0.028907     -0.022290      0.012560
O	      4.30490      4.38904      6.23953         0.002380      0.039871      0.046923
O	      6.44609      6.46447      6.32774        -0.056225      0.023567     -0.010043
O	      6.44391      4.13897      8.44487         0.008065     -0.108593     -0.026183
O	      8.78086      6.46781      8.50508         0.011938      0.034282     -0.032970
O	      2.10425      6.40763      6.28171        -0.003018      0.001401      0.020628
O	      4.33815      8.64601      6.35647        -0.019651     -0.026871      0.032904
O	      4.25773      6.53557      8.36457        -0.017452      0.019305     -0.002334
O	      6.40626      8.66041      8.49739        -0.027762      0.002524      0.004019
O	      6.47692      6.54877     10.60471         0.008642      0.008713     -0.001082
O	      8.48732      8.52619     10.54379         0.008854     -0.025995     -0.022944
