# total energy = -254.16047913 eV
 
CRYSTAL
PRIMVEC
0.028228 6.236674 6.382868 
6.432071 0.012903 6.398356 
4.292688 4.173157 0.003748 
PRIMCOORD
36 1
Li	     10.66781      4.20165      6.37222        -0.016716     -0.011705     -0.049563
Li	      6.42333      4.19074      2.25001         0.009234      0.018705      0.044102
Li	      8.52855      4.19382      4.30619        -0.013475      0.010081      0.001214
Li	      6.42610      2.21756      4.27120         0.015262      0.059817     -0.010562
Li	      2.18236      4.13714      2.12935         0.056935     -0.005534     -0.011229
Li	      4.39882      4.15099      4.27601         0.071622      0.013731     -0.018913
Li	      6.44229      4.18484      6.26580         0.005781     -0.023784     -0.042292
Li	      0.04323      4.17659      4.25569         0.001769     -0.009288      0.009700
Li	      2.16772      4.15694      6.35097        -0.007292      0.032194      0.006308
Sc	      8.54481      2.23191      6.32492         0.023172      0.002788     -0.006812
Sc	      4.34794      2.20833      2.18308         0.009026      0.027324     -0.019154
Sc	      2.11585      6.08075      4.26770        -0.038171     -0.055400      0.067878
V	      4.33307      6.20428      2.11958         0.052813     -0.029156      0.051028
V	      6.46904      6.21415      4.26127        -0.028430      0.047249     -0.030751
V	      4.30909      6.21403      6.36861        -0.005958      0.029569      0.027201
V	      8.54580      8.36505      8.58495        -0.024461      0.046191      0.022510
V	      6.45299      6.18457      8.55584        -0.083901     -0.018234      0.035885
Cr	      4.32750      2.06185      6.34885        -0.007819     -0.024111     -0.040463
O	      2.15268      2.11772      2.11667         0.004656     -0.001403     -0.050690
O	      4.34201      4.22542      2.12312        -0.004034      0.014221     -0.018907
O	      4.21091      2.12198      4.33703         0.099761     -0.005136      0.022521
O	      6.43711      4.28824      4.26074         0.013787     -0.051851      0.013784
O	      6.37324      2.10179      6.51028        -0.031129      0.004169     -0.040796
O	      8.60022      4.25147      6.37961         0.002086      0.008958      0.021566
O	      2.14045      4.08381      4.26545        -0.000714      0.099542     -0.010969
O	      4.36594      6.23797      4.22090        -0.066634     -0.000789     -0.021634
O	      4.28530      4.16854      6.54605        -0.010973     -0.061674      0.002130
O	      6.46572      6.24082      6.44143        -0.013406     -0.003049      0.084697
O	      6.27832      4.13438      8.54903        -0.029775      0.019229     -0.003509
O	      8.60349      6.25120      8.45473        -0.038297     -0.011899     -0.042227
O	      2.29907      6.28881      6.30258         0.021163     -0.003674      0.010355
O	      4.24623      8.25126      6.46574        -0.000705      0.007859     -0.020949
O	      4.38138      6.26143      8.44201        -0.002959     -0.047941      0.044248
O	      6.48757      8.23759      8.53947         0.037333     -0.050360     -0.012629
O	      6.51932      6.20850     10.51556         0.009871     -0.000712      0.016950
O	      8.56080      8.29990     10.62550        -0.009423     -0.025923     -0.030030
