# total energy = -247.82344967 eV
 
CRYSTAL
PRIMVEC
-0.000969 6.403601 6.422825 
6.235015 -0.008990 6.430496 
4.154135 4.272057 -0.004001 
PRIMCOORD
36 1
Li	      6.17641      4.27669      2.28665        -0.006476     -0.022580     -0.031388
Li	      6.16131      2.09719      4.28292        -0.023396     -0.061227      0.013557
Li	      4.14793      6.41496      2.15997        -0.000555      0.030739     -0.024425
Li	      8.27256      4.32554      8.61744         0.011570     -0.031353     -0.046948
Li	      4.17201      4.23483      4.11394        -0.000296      0.019179     -0.094222
Li	      4.11833      2.19251      6.45188         0.002972      0.002234      0.005693
Li	      6.28024      4.28913     10.58781        -0.021051      0.027476     -0.011386
Li	      4.15818      6.40864      6.41603        -0.018715      0.004962     -0.022879
Li	      6.26861      6.36786      8.70676         0.022237      0.024516      0.082831
Sc	      6.21026      0.04541      6.44689        -0.012504     -0.008649      0.026859
Sc	      6.21713      4.29662      6.43800        -0.122769     -0.044137      0.091655
Sc	      8.31442      8.58286      8.67216         0.044515      0.033809      0.107396
V	      2.10031      8.49080      6.41599         0.088865     -0.021965     -0.051561
V	      4.14601      2.10852      2.17276         0.043324      0.017951     -0.097407
V	      6.15827      6.40210      4.24321        -0.015218      0.084146     -0.051111
V	      2.13902      6.31314      4.21004        -0.018103     -0.018558     -0.006149
V	      6.26177      8.50284      6.41787        -0.031574      0.020551     -0.071524
Cu	      4.21245      6.42481     10.67105        -0.015184     -0.048539      0.019003
O	      2.12741      2.10772      2.10179         0.032901     -0.011623      0.008506
O	      4.15479      4.10352      2.06671        -0.023589      0.051328     -0.037968
O	      3.93207      2.25065      4.20787        -0.032873      0.109556      0.055280
O	      6.26206      4.40691      4.31194        -0.034561     -0.041314     -0.051514
O	      6.32890      2.14344      6.41951        -0.050937     -0.002080     -0.025229
O	      8.30246      4.18236      6.34297         0.000645     -0.025150      0.152834
O	      2.05247      4.26391      4.39378         0.050154     -0.069188     -0.026451
O	      4.29929      6.37412      4.20500         0.101033      0.019608      0.001237
O	      4.09066      4.26576      6.55212         0.154117     -0.011718      0.007188
O	      6.22458      6.42511      6.23047         0.039323      0.039488     -0.005754
O	      6.18952      4.33270      8.48085         0.006143      0.018091     -0.023949
O	      8.34215      6.45953      8.71430        -0.052379     -0.014562     -0.050320
O	      2.11048      6.37633      6.29501        -0.064382      0.002938      0.123834
O	      4.16459      8.53249      6.48064         0.003106      0.035931      0.015400
O	      4.16005      6.48960      8.68729        -0.011996      0.048312     -0.122782
O	      6.19132      8.53077      8.47303        -0.055410     -0.027708      0.074732
O	      6.25826      6.38022     10.78369         0.006120      0.023651     -0.020240
O	      8.35900      8.33286     10.80461         0.004943     -0.154115      0.087203
