# total energy = -248.63603789 eV
 
CRYSTAL
PRIMVEC
0.020621 6.277050 6.571583 
6.278247 0.020392 6.572202 
4.169426 4.168837 0.029341 
PRIMCOORD
36 1
Li	      4.21493     10.40288      6.62868        -0.000740     -0.018220      0.029813
Li	      4.13676      2.19678      2.22841        -0.049598     -0.007454     -0.027331
Li	      6.25304      2.10289      4.38798         0.029996     -0.004531     -0.042111
Li	      2.14566      4.13176      2.18100        -0.011296     -0.027663     -0.036180
Li	      2.14656      2.10665      4.33400        -0.036900      0.001707     -0.064600
Li	      6.26377      4.18463      6.54692        -0.005501     -0.015098     -0.046099
Li	      8.31989      6.34241     11.00093        -0.003151      0.058279      0.080237
Li	      6.27300      8.37268      6.61764        -0.005317      0.024364      0.002729
Li	      8.34963      8.34135      8.81753         0.015759      0.020615      0.044580
Sc	      8.31687      4.21752      4.40817        -0.030715     -0.081918     -0.007446
Sc	      4.14900      6.25227      2.25119         0.013474     -0.005255      0.042963
Sc	      4.25158      6.18778      6.56599        -0.034454     -0.000151     -0.009859
V	      8.33475      2.12605      6.58893        -0.004395     -0.019147      0.030034
V	      6.25897     10.34842      8.80146         0.001601      0.027720     -0.050541
V	      0.14977      4.22451      4.38034         0.015511     -0.102521      0.064315
V	      6.32612      6.36465      8.77803         0.033372     -0.026954     -0.052378
V	      4.18424      2.11929      6.53891        -0.018570     -0.044824      0.023334
Ni	      4.17303      4.13896      4.38423        -0.084077      0.096555      0.036020
O	      2.05223      1.99558      2.11155         0.045430      0.042965      0.101391
O	      4.16772      4.18752      2.32388        -0.024171     -0.020415     -0.113893
O	      4.16742      2.10707      4.52008         0.047949     -0.153698      0.149056
O	      6.26393      4.17307      4.23821         0.104022      0.001274      0.030934
O	      6.26217      2.10847      6.66232        -0.054372      0.023029      0.028643
O	      8.33982      4.15578      6.51534         0.010787     -0.104954     -0.085344
O	      1.94686      4.19486      4.42115         0.038530      0.019641      0.018434
O	      4.16873      6.32992      4.40947         0.016015      0.081804     -0.004642
O	      4.20140      4.17036      6.45363         0.003694      0.162534      0.111367
O	      6.32916      6.26378      6.67974        -0.004241      0.027136     -0.037256
O	      6.28503      4.26630      8.95960         0.020251      0.003129      0.003968
O	      8.32760      6.30596      8.65695         0.060846     -0.036126     -0.124440
O	      2.13775      6.34474      6.71081        -0.047672      0.024702      0.008410
O	      4.11059      8.33167      6.44443        -0.015239      0.050498     -0.023867
O	      4.25373      6.27037      8.74430         0.009402     -0.014781      0.039485
O	      6.28363      8.35832      8.78327        -0.019121     -0.037216     -0.013276
O	      6.29708      6.22262     10.87610         0.026336      0.084626     -0.019973
O	      8.54213      8.40096     11.06535        -0.043447     -0.029653     -0.086478
