# total energy = -253.24266017 eV
 
CRYSTAL
PRIMVEC
-0.017378 6.339146 6.366155 
6.499603 0.010490 6.338290 
4.336753 4.211026 0.003589 
PRIMCOORD
36 1
Li	      4.32083     10.49555      6.40700         0.002048     -0.043550     -0.014952
Li	      2.30566      6.32182      8.43502         0.047843      0.070795     -0.045980
Li	      4.30335      8.37374      8.45576        -0.028928      0.047619      0.013548
Li	      6.52469      6.26481      4.36619        -0.029379      0.031994     -0.020722
Li	      8.45419      6.37343      6.39928        -0.014603      0.054418      0.023517
Li	      6.45018      4.44834      6.32626         0.012873      0.033604      0.072846
Li	      4.43922      6.29650      6.55290        -0.026821     -0.006063     -0.035578
Li	      4.27402      4.37792      8.29596         0.005038     -0.027770     -0.028076
Li	      6.35143      6.33176      8.35250        -0.043023     -0.036289      0.054842
Sc	      6.45489      2.16224      4.13923        -0.167649     -0.261917      0.105521
Sc	      6.51539      2.10890      8.30861        -0.045859     -0.029987      0.104852
Sc	      8.63285      6.35445     10.58119         0.131361      0.018777     -0.007907
V	      2.21035      8.40107      6.38646         0.036902     -0.072574     -0.047016
V	      4.29290      0.08173      4.16882         0.196651      0.222809      0.141582
V	      8.68245      4.21485      8.42231        -0.030654      0.038377     -0.002341
V	      4.36015      4.20432      4.32823         0.400740      0.273387     -0.156111
V	      4.34213      8.42682      4.25803         0.116994     -0.141837      0.076735
V	      6.49785      8.36023      6.50861        -0.251429      0.064211     -0.266672
O	      2.12785      2.20719      2.06314         0.032611     -0.101182      0.071683
O	      4.19502      4.24250      2.26207        -0.013475     -0.146417     -0.009217
O	      4.39546      2.12488      4.27985         0.077352     -0.543087      0.035376
O	      6.46995      4.19901      4.25230        -0.592223      0.136606      0.014379
O	      6.69025      2.03855      6.28249         0.033246     -0.008442     -0.075966
O	      8.70245      4.08219      6.31544        -0.025731      0.013700     -0.060546
O	      2.14576      4.25287      4.30207         0.375497     -0.051827     -0.096631
O	      4.25195      6.34187      4.15844        -0.040085      0.402141      0.023817
O	      4.24789      4.25558      6.26226         0.021272      0.000778      0.229602
O	      6.46945      6.45627      6.36923        -0.052093      0.004521      0.043385
O	      6.64182      4.19460      8.56773        -0.033534      0.024665     -0.091970
O	      8.75658      6.24195      8.47155        -0.039465     -0.022116     -0.022508
O	      2.14884      6.32142      6.32320        -0.037134     -0.060420      0.029498
O	      4.26264      8.39882      6.23984         0.077721      0.030804      0.217830
O	      4.30452      6.34829      8.64791        -0.018894      0.003088     -0.118162
O	      6.49158      8.45965      8.46074         0.043534      0.015008     -0.096953
O	      6.48833      6.27985     10.56258        -0.085877      0.067498     -0.031064
O	      8.68972      8.49264     10.59935        -0.034827     -0.001322     -0.030640
