# total energy = -234.47452463 eV
 
CRYSTAL
PRIMVEC
0.035442 6.500458 6.218250 
6.495120 0.026750 6.226494 
4.333521 4.342820 0.014036 
PRIMCOORD
36 1
Li	      2.17936      8.58216      6.21821        -0.041679      0.040509      0.018171
Li	      2.20976      6.51907      8.15183        -0.026363      0.004825      0.033240
Li	      6.67625      8.59999     10.31998        -0.033858     -0.011508     -0.021595
Li	      6.38766      2.35944      8.30589        -0.037643     -0.005529      0.006783
Li	      8.60650      4.44937      8.32042         0.007845      0.006228      0.015220
Li	     10.74780      8.67721     10.39411        -0.033850     -0.016578      0.016126
Li	      8.65738      6.68535     10.32042         0.031462      0.012823     -0.007940
Li	      8.75399      8.50590      8.41815         0.022066     -0.054430     -0.046133
Li	      6.64255      6.52891      8.34643         0.011731      0.023638      0.020336
Sc	      8.68832     10.66416     10.32625        -0.027347      0.095462      0.089613
Sc	      2.11575      2.24653      4.08491        -0.017598      0.032879     -0.004101
Sc	      4.30957      4.40512      4.07431         0.038307     -0.003521     -0.000659
Sc	      8.73445      6.49949      6.40731         0.061458     -0.065482     -0.099760
Cr	      4.38809      8.65255      8.24708         0.185905      0.153979     -0.020642
Cr	      6.53421      4.31736      6.37589        -0.030833     -0.156849     -0.095205
Co	      0.19550      6.42062      6.15629         0.129602      0.016410      0.140195
Cu	      4.25978      6.54440      6.24681        -0.071965      0.019060     -0.077020
Ni	      6.50673      8.73968      6.27699         0.130457     -0.017894     -0.002186
O	      6.53172      4.37631      8.15892        -0.043572      0.027443      0.080973
O	      2.40752      2.16428      2.07689        -0.021601      0.016343     -0.015209
O	      4.33392      4.18612      1.96571         0.046876     -0.039148      0.025338
O	      4.29202      2.21497      4.08146        -0.034708     -0.037892     -0.053355
O	      6.48402      4.42011      4.27705         0.033725      0.093394      0.014961
O	      6.49727      2.38843      6.25299        -0.068835      0.149722      0.029917
O	      8.54298      4.40890      6.21613        -0.100827      0.010887     -0.011645
O	      2.28399      4.27387      4.23552        -0.003646     -0.125711     -0.173307
O	      4.38956      6.47790      4.23857        -0.020118      0.001832     -0.094894
O	      4.44475      4.30361      6.22313         0.074532     -0.225973      0.045826
O	      6.58220      6.36527      6.22836        -0.020095     -0.111170      0.050998
O	      8.69213      6.52573      8.32310        -0.000823     -0.023466      0.084343
O	      2.11794      6.44610      6.21225         0.077686      0.073278     -0.024150
O	      4.43970      8.73943      6.27993        -0.073729      0.079487     -0.037461
O	      4.31971      6.71499      8.19422        -0.029671      0.036022      0.107957
O	      6.26753      8.65947      8.26809        -0.115881     -0.012232      0.199264
O	      6.41881      6.54497     10.58588        -0.021343      0.036052     -0.141457
O	      8.68230      8.75228     10.33679         0.024337     -0.022890     -0.052540
