# total energy = -234.98929688 eV
 
CRYSTAL
PRIMVEC
0.043130 6.338252 6.436370 
6.282388 0.047906 6.431418 
4.212938 4.246960 0.007234 
PRIMCOORD
36 1
Li	      2.15365      2.08774      0.09710        -0.040780      0.027412      0.067012
Li	      2.23737      6.44703      8.56184         0.009307      0.019378      0.003800
Li	      4.06590      2.11162      2.11921        -0.020576     -0.013339      0.034453
Li	      4.31060      6.29495     10.58894         0.044312     -0.008528      0.021623
Li	      4.32306      6.34909      2.23995         0.036528     -0.004354     -0.036528
Li	      2.17620      4.08507      2.21767         0.029960     -0.095177     -0.071637
Li	      6.22010      4.31778     10.66412        -0.018406      0.000007     -0.010417
Li	      4.17713      6.44216      6.52860         0.003640      0.020154      0.019566
Li	      6.19673      6.33658      8.70867         0.000048      0.016701      0.057290
Sc	      4.23686      4.16992      0.14775        -0.053834      0.091653     -0.021018
Sc	      6.37838      8.50321     10.59445        -0.033565      0.010858      0.088864
Sc	      8.36031      6.42791      6.57487         0.060698     -0.047897      0.017907
Sc	      6.29886      4.30039      6.51627         0.015844      0.001629      0.000330
Cr	      2.07708      2.14264      4.16316        -0.020471      0.044477     -0.053000
Cr	      2.18459      6.34844      4.27186        -0.003862      0.020225      0.025971
Co	      6.31774      8.48455      6.45123        -0.106608      0.036048     -0.118518
Cu	      4.19649      4.27903      4.14026         0.080985     -0.107996     -0.061040
Cu	      4.24107      4.32448      8.61896        -0.032931     -0.105594     -0.017916
O	      2.11204      2.11939      2.24035        -0.004672     -0.024918     -0.065745
O	      4.23499      6.17467      8.60535        -0.000205      0.202357     -0.010665
O	      4.22178      4.24809      2.13792         0.018539     -0.015582     -0.073066
O	      4.14716      2.18998      4.29536         0.049769     -0.097041     -0.016589
O	      6.23502      4.33705      4.33494         0.127078     -0.059847      0.018689
O	      6.21506      2.20099      6.35396        -0.010793      0.034582      0.048367
O	      8.35943      4.36109      6.49353        -0.027590     -0.002015      0.073066
O	      2.19145      4.23547      4.25019        -0.129364     -0.058881     -0.006658
O	      4.23498      6.26563      4.24610        -0.011265      0.168334     -0.021904
O	      4.10563      4.24554      6.23550        -0.086390      0.082524     -0.059267
O	      6.31007      6.43566      6.28681        -0.038245      0.029236      0.040694
O	      6.13074      4.31567      8.53621         0.075724      0.018792     -0.012320
O	      8.41738      6.60075      8.65147        -0.002517     -0.031433     -0.010593
O	      2.13641      6.19866      6.28877         0.052456     -0.102573      0.090300
O	      4.44071      8.47039      6.48062         0.147862     -0.036270      0.037561
O	      6.52975      8.51137      8.54286        -0.052522     -0.039650     -0.061538
O	      6.43110      6.43875     10.79591        -0.084356     -0.042462     -0.037976
O	      8.41516      8.37508     10.90320         0.026201      0.069190      0.120899
