# total energy = -235.43390973 eV
 
CRYSTAL
PRIMVEC
-0.014895 6.332391 6.406551 
6.215491 -0.006109 6.397239 
4.156879 4.228887 -0.017447 
PRIMCOORD
36 1
Li	      2.07220      2.13747      0.02328        -0.017767     -0.000193      0.010546
Li	      6.24636      4.26276      2.29105        -0.039472      0.034308      0.110277
Li	      8.15744      4.35713      4.37161        -0.071361     -0.005872      0.022542
Li	      8.23382      4.25583      8.48165        -0.006124     -0.042559      0.082499
Li	      6.32418      6.13879      4.26279         0.028864     -0.050881     -0.045143
Li	      4.15735      4.19701      4.28774        -0.114422     -0.025847     -0.030464
Li	      6.31789      4.25680      6.31300        -0.008970     -0.005032      0.026492
Li	      2.07457      4.19456      6.37886        -0.005506      0.006269     -0.113327
Li	      6.23749      6.28724      8.51799        -0.004586      0.002013      0.026936
Sc	      4.08125      4.14150      0.00129         0.001430     -0.000100      0.039767
Sc	      6.17854      2.24152      4.29701        -0.002742      0.052597     -0.007357
Sc	      0.12477      2.09830      2.17562         0.220465     -0.105209     -0.053409
Sc	      4.10786      4.25635      8.50513        -0.030427      0.178000     -0.013496
Cr	      4.11743      2.09983      2.15726        -0.025358     -0.004365      0.014663
Cr	      4.23163      6.30008      6.35204         0.039692      0.023564      0.021908
Co	      2.07692      6.29055      4.26933         0.036033     -0.110446      0.109262
Ni	      8.18158      6.28607      6.33802        -0.036152      0.154196     -0.075118
Ni	      6.23767      4.23117     10.64304        -0.015827     -0.016259      0.026767
O	      2.13109      2.10723      2.13491        -0.108698     -0.008095      0.057223
O	      4.20045      4.16650      2.05825        -0.020352      0.006074     -0.038776
O	      4.12409      2.11351      4.20829         0.102982     -0.049465      0.018375
O	      6.25252      4.17714      4.27854        -0.081292     -0.100962      0.034555
O	      6.15273      2.03340      6.44390        -0.021665     -0.012266      0.011234
O	      8.31175      4.28146      6.35357         0.128280     -0.159195     -0.010960
O	      2.02297      4.48840      4.25643         0.199638      0.237384     -0.037403
O	      4.03985      6.36249      4.31973         0.072357     -0.060008     -0.043163
O	      4.10480      4.37305      6.41475        -0.004947      0.117247      0.045662
O	      6.09334      6.37362      6.33394        -0.289429     -0.000016     -0.057163
O	      6.17055      4.16627      8.58176        -0.043779     -0.048403     -0.103402
O	      8.31669      6.37384      8.58692        -0.037583      0.025142      0.220858
O	      2.18757      6.35685      6.14978         0.051091      0.004551     -0.138178
O	      4.13350      8.33171      6.46516        -0.001487     -0.083343     -0.034125
O	      4.12560      6.38460      8.35061         0.025495     -0.113377     -0.073449
O	      6.15376      8.44183      8.58424         0.102474     -0.004946      0.074482
O	      6.36147      6.29156     10.71834         0.002434      0.149142     -0.038166
O	      8.30048      8.25999     10.62272        -0.023287      0.016354     -0.040953
