# total energy = -236.78586821 eV
 
CRYSTAL
PRIMVEC
0.027681 6.497582 6.226667 
6.249437 -0.032244 6.285266 
4.164167 4.367930 -0.017640 
PRIMCOORD
36 1
Li	      1.96096      2.11562      0.06730         0.025918      0.004934     -0.023900
Li	      2.01058      0.03948      2.06474        -0.023536      0.019712      0.009383
Li	      6.26096      2.22331      4.25684        -0.027451     -0.012679      0.098024
Li	      4.15062      6.45045      2.09659         0.088262     -0.049299     -0.054269
Li	      6.28748      6.48884      4.16919         0.018118      0.060772     -0.019291
Li	      4.10873      4.42624      4.09548        -0.029506      0.081594      0.051712
Li	      4.23443      2.19490      6.17567         0.021555     -0.025443     -0.063807
Li	      2.15776      6.45803      4.12161        -0.020572     -0.059974      0.048328
Li	      2.11529      4.35896      6.22438        -0.001370      0.017595     -0.022943
Sc	      4.15213      2.27801      2.13366        -0.246945     -0.088564     -0.094156
Sc	      4.24286      8.58689      4.16133        -0.031619      0.031506      0.326882
Sc	      4.05068      6.40406      6.18131        -0.008027      0.026025     -0.016913
Sc	      6.43014      6.56445      8.32967        -0.136154     -0.190146      0.027363
Cr	      8.30885      4.35028      4.21672         0.022726      0.085452      0.085051
Cr	      6.23374      4.21877      6.20925         0.088855     -0.179289     -0.265927
Co	      2.11268      4.26575      2.01488         0.110483      0.148247      0.287303
Co	      8.32313      8.68844      8.33821        -0.624129     -0.282999      0.153691
Cu	      6.29328      0.04967      6.27001        -0.025869     -0.024638     -0.069237
O	      6.26231      2.41365      6.30952        -0.009406      0.275603      0.008282
O	      2.11835      2.36995      2.06212        -0.081451     -0.013121     -0.081141
O	      4.03386      4.34380      1.96960         0.162582      0.038614     -0.005016
O	      4.20406      1.98070      4.13699         0.009773      0.041100     -0.123415
O	      6.30734      4.34980      4.35560        -0.052728     -0.025362     -0.027438
O	      8.32108      4.34637      6.31300        -0.100960      0.001150     -0.223388
O	      2.11126      4.33976      3.89594        -0.124918      0.107821      0.178770
O	      4.17796      6.54902      4.18472        -0.048251     -0.005695      0.013124
O	      4.23483      4.28885      6.37130         0.168777      0.282648     -0.675951
O	      6.19943      6.25951      6.32859         0.021668      0.026716      0.090436
O	      6.27534      4.38774      8.28381         0.433114      0.066785     -0.072954
O	      8.39442      6.71326      8.37684        -0.226270     -0.797866     -0.012074
O	      2.02235      6.48143      6.24008         0.080639     -0.047080      0.075744
O	      4.25663      8.47636      6.22199         0.061430     -0.185920      0.059768
O	      4.16484      6.42986      8.41229         0.224876      0.670813     -0.041677
O	      6.36665      8.64993      8.30464        -0.212699     -0.137454     -0.087571
O	      6.19883      6.40436     10.48200         0.048741     -0.027651     -0.182438
O	      8.35948      8.80803     10.26202         0.444345      0.166094      0.649645
