# total energy = -230.53505524 eV
 
CRYSTAL
PRIMVEC
-0.022139 6.317343 6.375314 
6.280125 -0.000487 6.353057 
4.217209 4.227547 -0.030603 
PRIMCOORD
36 1
Li	     10.37649      4.29081      6.33795        -0.056428     -0.084755     -0.020835
Li	      6.24603      4.26052      2.14404         0.196871     -0.040105     -0.074516
Li	      4.22794      0.10000      4.36108        -0.018208      0.080648     -0.086568
Li	      8.37167      4.21097      8.41046        -0.144352      0.111097     -0.052536
Li	      2.15900      2.14000      4.24534         0.006284      0.107794      0.037374
Li	      8.41140      6.14929      6.25327        -0.130838     -0.041091      0.109247
Li	      6.34915      4.25300      6.26402         0.030860      0.154742      0.185638
Li	      0.02588      4.21831      4.21676         0.077744     -0.085870     -0.081858
Li	      2.05794      4.18544      6.31673        -0.014418     -0.049962     -0.006943
Sc	      8.40381      2.28012      6.26910         0.395867      0.031872      0.080839
Sc	      0.08173      2.03836      2.09636        -0.403794      0.662278      0.468540
Sc	      2.02700      6.19726      4.28195         0.130332     -0.113972     -0.301113
Sc	      4.12934      4.26131      8.48829         0.423527     -0.019286     -0.088739
Cr	      4.19223      2.15827      2.12939         0.068872     -0.584317     -0.243360
Cr	      4.26988      6.32685      6.32614         0.222124      0.293109      0.324501
Cu	      6.29221      6.28182      8.46556         0.264109     -0.462790     -0.225785
Ni	      6.22829      2.11513      4.28775        -0.148902      0.278135     -0.215290
Ni	      4.19829      4.16352      4.25218        -0.238013      0.230247      0.033914
O	      6.12594      6.34383      6.45679        -0.202986     -0.027278     -0.119588
O	      2.14545      2.10403      2.06352         0.012679      0.006602     -0.043813
O	      4.22291      4.17321      2.14227        -0.013125      0.035691      0.232481
O	      4.18990      2.17883      4.13546         0.249690     -0.556583      0.117843
O	      6.08462      4.13708      4.24141         0.536543     -0.657597      0.085670
O	      6.32874      2.05745      6.41173        -0.108425     -0.021295     -0.759475
O	      8.39868      4.23213      6.28694         0.011910     -0.216447     -0.003107
O	      2.24175      4.19641      4.25994        -0.270085      0.117734      0.046335
O	      4.22070      6.26272      4.29792        -0.005096      0.223016     -0.210192
O	      4.15268      4.42720      6.36779        -0.013397     -0.206788     -0.216338
O	      6.20907      4.19625      8.52512        -0.095210     -0.631272     -0.028420
O	      8.37585      6.38467      8.47690         0.998701      0.113259      0.155362
O	      2.29012      6.37980      6.31743        -0.022197      0.048844     -0.105189
O	      4.21028      8.31811      6.42425        -0.072275     -0.003416      0.097452
O	      4.23577      6.39226      8.37379        -1.038244      0.171563     -0.187559
O	      6.21436      8.35566      8.50748        -0.214978      0.616955      0.625698
O	      6.27148      6.32178     10.49690        -0.097946      0.550397      0.276804
O	      8.32751      8.41349     10.54775        -0.317195     -0.031161      0.193528
