# total energy = -231.59867525 eV
 
CRYSTAL
PRIMVEC
0.062549 6.373854 6.379021 
6.303825 0.028681 6.413237 
4.207692 4.276942 0.013956 
PRIMCOORD
36 1
Li	      0.16201      6.27111      6.37489        -0.085064      0.014313     -0.044408
Li	      4.32134      8.55353      8.53235         0.031219      0.004735      0.014695
Li	      6.40094      8.50841     10.54191        -0.021959     -0.031614     -0.082500
Li	      8.38764      4.33779      8.60750         0.031259      0.018398      0.006532
Li	      2.12954      2.13320      4.25840         0.011303      0.006193      0.010893
Li	      8.34257      6.40280     10.64158        -0.103487     -0.001360     -0.046858
Li	      6.26747      8.60996      6.47474        -0.050802     -0.042040      0.061707
Li	      8.35976      8.53684      8.61119        -0.051614     -0.018768      0.017878
Li	      6.42973      6.37539      8.62123         0.019483      0.035520     -0.014472
Sc	      4.23746      6.45469      2.21497        -0.009567      0.038312     -0.059868
Sc	      4.11378      4.16814      4.21040        -0.156235     -0.109247     -0.152832
Sc	      8.38796      6.39819      6.48687         0.069939     -0.141014      0.126514
Sc	      4.24069      6.43349      6.45027         0.095171      0.092380      0.120242
Cr	      4.28619      6.40501     10.59431         0.131962     -0.118805      0.182396
Cr	      6.33534      4.29232      6.40917         0.199595     -0.292194      0.106579
Cu	      2.17688      8.49492      6.36767        -0.046845      0.070024     -0.023660
Cu	      6.41110      4.35217     10.65509        -0.123128      0.236449      0.002333
Ni	      6.37304     10.63364      8.50643        -0.015690     -0.593391      0.040671
O	      6.36282      8.75814      8.49568        -0.037846     -0.374432     -0.008584
O	      8.59505      8.66915     10.74312        -0.008081      0.009523      0.046883
O	      2.13011      1.96313      2.02116        -0.038943      0.506837     -0.084883
O	      4.32651      4.30749      2.18013        -0.389643      0.146537      0.046565
O	      4.19092      2.08049      4.33094         0.001090      0.203983     -0.036827
O	      6.40384      4.25794      4.37032        -0.427942      0.044227     -0.057719
O	      6.35141      2.25237      6.44825        -0.193211      0.265599     -0.022631
O	      8.36372      4.27287      6.30384        -0.148828      0.184642      0.044164
O	      2.08432      4.23480      4.24492         0.160989     -0.009847      0.063923
O	      4.25281      6.31784      4.29715         0.009899      0.082114      0.115533
O	      4.30559      4.25762      6.32782         0.027687      0.081606      0.080318
O	      6.32290      6.31333      6.46829        -0.008880     -0.104724     -0.050925
O	      6.38193      4.24689      8.46141        -0.029256      0.044731      0.151452
O	      8.49095      6.41512      8.49812         0.021499      0.033572     -0.044222
O	      2.15715      6.49267      6.39075        -0.004811     -0.210502      0.117255
O	      4.19117      8.50831      6.31295         0.329830      0.048447     -0.234286
O	      4.13625      6.38443      8.58895         0.468274      0.207171     -0.401350
O	      6.21384      6.39644     10.61313         0.342632     -0.327371      0.009492
