# total energy = -240.12585890 eV
 
CRYSTAL
PRIMVEC
0.014986 6.440881 6.319249 
6.401543 0.044382 6.290097 
4.290431 4.296870 0.007174 
PRIMCOORD
36 1
Li	      0.16112      6.56774      6.32523         0.002587      0.105004     -0.089074
Li	      8.37944      2.14286      6.30313        -0.060402      0.033471     -0.047835
Li	      6.32475      4.34666      2.06856        -0.041306      0.052153      0.068503
Li	      6.40046      2.19924      4.29026         0.006059     -0.051667     -0.016578
Li	      4.23908      6.35753      2.08760        -0.054475     -0.048125      0.054998
Li	      4.36026      4.25874      4.17610         0.051984      0.010354      0.008724
Li	      4.38086      2.19475      6.29108         0.047759     -0.044851     -0.025887
Li	      8.54566      6.57782     10.50779         0.003356      0.077946     -0.038202
Li	      8.57974      8.53480      8.45914         0.044762     -0.049776      0.105649
Sc	      4.29024      2.29750      2.08156        -0.049415      0.030873      0.386955
Sc	      8.55417      4.26867      4.27984         0.320217     -0.280207     -0.047018
Sc	      4.15748      6.42712      6.31989         0.070117     -0.190475     -0.278881
Sc	      6.56331      6.50425      8.38830        -0.040728      0.014141      0.401466
Cr	      8.58314      4.37990      8.36079         0.161058      0.086535     -0.033087
Cr	      2.12451      2.17031      4.19591        -0.216801      0.133599     -0.036318
Fe	      6.35132      4.10758      6.31429         0.027105      0.011324     -0.148208
Co	     10.67138      8.61640     10.51240         0.128916      0.032556      0.037251
Cu	      2.17509      4.35327      6.30258         0.085494     -0.027951     -0.103791
O	      6.39909      2.25657      6.23465        -0.038412     -0.194539      0.055701
O	      2.18616      2.27397      2.18977         0.047951     -0.020248     -0.044174
O	      4.18209      4.31397      2.13179        -0.052801     -0.058647     -0.049245
O	      4.17170      2.11033      4.17567         0.049629      0.094738     -0.121001
O	      6.42961      4.42775      4.29796        -0.052517      0.011201     -0.064049
O	      8.41075      4.30569      6.35742        -0.022757      0.026204      0.200562
O	      1.97796      4.19995      4.17776        -0.135692     -0.083347      0.082732
O	      4.38097      6.62672      4.22038         0.037007      0.052172      0.168781
O	      4.35437      4.34293      6.28698        -0.282335      0.018852      0.005762
O	      6.38534      6.50899      6.25301         0.016084      0.031593     -0.002655
O	      6.51373      4.38509      8.30198        -0.022177     -0.029175      0.784149
O	      8.55312      6.37032      8.42201        -0.002956     -0.046444     -0.073510
O	      2.16627      6.34171      6.30746        -0.095033     -0.008836      0.059709
O	      4.36139      8.54070      6.32601         0.042727      0.158910     -0.916756
O	      4.35812      6.54648      8.43170        -0.009714      0.054429     -0.160803
O	      6.44325      8.59172      8.37583        -0.020951      0.078921     -0.034998
O	      6.37704      6.30433     10.49038        -0.024226      0.012508     -0.133823
O	      8.74908      8.63709     10.50734         0.079887      0.006802      0.044947
