# total energy = -238.87346812 eV
 
CRYSTAL
PRIMVEC
-0.045173 6.401518 6.314576 
6.430403 -0.038689 6.308667 
4.280260 4.256724 -0.018963 
PRIMCOORD
36 1
Li	      6.37500      6.48011     12.43049         0.000034     -0.015480     -0.064294
Li	      8.40108      8.44129     12.50700         0.010662     -0.042618     -0.106991
Li	      8.60200      4.14074      4.34042         0.053427     -0.101376      0.031577
Li	      6.50439      2.07628      4.37900        -0.028129     -0.044983     -0.023445
Li	      4.35413      2.00281      6.22564         0.002538     -0.016611     -0.023984
Li	      6.48035      4.14753      6.17279         0.035756     -0.037728     -0.081875
Li	      8.44517      6.46706     10.58963        -0.043941      0.083246      0.010032
Li	      4.21455      6.41620      6.27995        -0.013064      0.020001     -0.046836
Li	      8.48772      8.57313      8.47864        -0.029099      0.018095      0.135013
Sc	      4.19062      8.47644      8.34251         0.012513     -0.084819      0.024868
Sc	      6.34775      2.11738      8.26188        -0.087087      0.007387      0.052920
Sc	      2.13211      4.38700      6.26976         0.057447      0.068473     -0.079287
Sc	      6.40656      6.34074      8.40615        -0.054090      0.089771      0.165401
Cr	      6.41621      6.35275      4.26623        -0.032199      0.019552      0.044716
Cr	      4.31425      4.25792      4.29654         0.042410      0.097907      0.226928
Fe	      8.53742      4.26141      8.22740         0.033898     -0.028482      0.162631
Co	     10.41110      8.59691     10.59811         0.827920      0.082166     -0.140418
Ni	      2.16717      6.35463      8.41612         0.066800     -0.019359     -0.001211
O	      2.12298      2.13643      2.21218        -0.004892      0.136241      0.055156
O	      4.22425      4.25195      2.24539        -0.028871      0.001889      0.043510
O	      4.17611      2.31034      4.15782        -0.012870      0.035010     -0.044402
O	      6.29929      4.33532      4.15518        -0.079913      0.025998      0.041822
O	      6.42096      2.09153      6.33397        -0.019054      0.039267      0.063599
O	      8.56701      4.19126      6.39108        -0.068763      0.011522     -0.024397
O	      2.21605      4.15548      4.18059        -0.009298     -0.050339     -0.059963
O	      4.39030      6.22807      4.17385         0.030592     -0.208147     -0.057158
O	      4.26847      4.26731      6.12287        -0.004171     -0.006239     -0.205348
O	      6.42736      6.42944      6.27110         0.009785      0.049713     -0.017800
O	      6.48937      4.20981      8.52672        -0.215235     -0.037890      0.308598
O	      8.54658      6.26667      8.41778         0.035329     -0.114432     -0.058464
O	      2.15601      6.37434      6.39412        -0.034032     -0.082502     -0.063913
O	      4.31240      8.52991      6.25832        -0.298608      0.007507     -0.129431
O	      4.28285      6.43289      8.45471        -0.020663      0.097991     -0.065296
O	      6.33866      8.48573      8.37562        -0.080891     -0.099165     -0.072304
O	      6.41552      6.27062     10.47579         0.012317      0.150762     -0.051546
O	      8.64297      8.45159     10.49171        -0.066557     -0.052329      0.051591
