# total energy = -242.17594565 eV
 
CRYSTAL
PRIMVEC
0.037466 6.366835 6.311408 
6.381430 0.012623 6.335910 
4.267327 4.274098 -0.004514 
PRIMCOORD
36 1
Li	      6.47248     10.44801      8.48971         0.010924      0.042900      0.019095
Li	      4.32279      2.23765      2.14943         0.030803      0.022537     -0.022877
Li	      6.36525      8.57030     10.31976        -0.033857      0.035373      0.053003
Li	      2.28749      4.13657      2.19408         0.025225     -0.057340      0.009172
Li	      2.27410      2.08500      4.16356        -0.012004     -0.087911     -0.042326
Li	      4.19541      4.17735      4.14044        -0.047792     -0.018522      0.046878
Li	      6.42333      8.55424      6.47764         0.002662      0.059471     -0.057344
Li	      4.33556      6.32316      6.44289         0.023220     -0.040163      0.015073
Li	      6.32382      6.59568      8.33694        -0.036638      0.028296     -0.020854
Sc	      4.33617      6.24082      2.17637         0.108051     -0.059527      0.037559
Sc	      4.17992      2.18530      6.28307        -0.063586      0.116279     -0.026382
Sc	      6.34012      4.34825      6.29325        -0.122037      0.035792     -0.116871
Sc	      0.13290      4.24487      4.19894         0.087298     -0.017633      0.104859
Cr	      4.25440      6.39946     10.43385        -0.021227      0.018088      0.027784
Cr	      8.48652      6.42219     10.51981         0.003753     -0.002184      0.027415
Fe	      2.20370      2.09679      0.12850         0.009281     -0.000005     -0.209455
Co	     10.63592      4.29959      6.33197         0.016347     -0.063745      0.084616
Co	      8.50973      8.53940      8.43391        -0.412794      0.149408     -0.046457
O	      2.09930      2.16156      2.01197        -0.059408      0.000134      0.268145
O	      4.25652      4.25018      1.93351         0.004235      0.034362     -0.012811
O	      4.27272      2.03413      4.24140        -0.003585     -0.004026     -0.011507
O	      6.50210      4.26865      4.27062         0.041907     -0.008738     -0.030501
O	      6.39613      2.07019      6.37663         0.024804     -0.014955     -0.009363
O	      8.57886      4.25026      6.24491        -0.029343      0.010977      0.023259
O	      2.13159      4.42056      4.16144        -0.028432      0.010275      0.002293
O	      4.14093      6.43657      4.21816        -0.035413      0.032273      0.055577
O	      4.30047      4.23498      6.42508         0.090345     -0.067386     -0.104399
O	      6.44336      6.34387      6.32212         0.023194     -0.037661     -0.018356
O	      6.29275      4.17658      8.44283        -0.023031     -0.023305     -0.005551
O	      8.55407      6.51618      8.47469         0.025833     -0.057167      0.010206
O	      1.96632      6.50076      6.18893         0.020499     -0.057157     -0.008489
O	      4.20577      8.68488      6.29549         0.050985      0.040842      0.013593
O	      4.29934      6.20566      8.50325         0.049269     -0.003715     -0.091018
O	      6.61003      8.51252      8.41243         0.241277      0.009567     -0.007453
O	      6.40204      6.37837     10.67471         0.018074     -0.016418     -0.009199
O	      8.57235      8.53790     10.52006         0.021161     -0.009018      0.052684
