# total energy = -236.80672117 eV
 
CRYSTAL
PRIMVEC
0.046249 6.224937 6.370348 
6.484495 0.001046 6.415833 
4.317845 4.174898 0.005697 
PRIMCOORD
36 1
Li	      2.27455      0.07876      2.21334         0.101159      0.042454     -0.066244
Li	      4.18802      2.08032      2.25066        -0.012289      0.015352     -0.019002
Li	      8.57092      4.18940      4.23433         0.055181     -0.024972      0.013587
Li	      4.35106      6.20295      2.19270         0.046377     -0.008503     -0.030479
Li	      6.47079      6.14705      4.29427        -0.020039      0.043092      0.045689
Li	      4.28177      2.12367      6.35176        -0.026650     -0.011459     -0.008916
Li	      6.48490      4.18756      6.29603         0.028546      0.019550      0.015008
Li	      8.68764      6.20540     10.60423        -0.038834     -0.032731      0.002713
Li	      4.41697      6.17959      6.42517         0.051724      0.016916      0.058590
Sc	      6.45093      0.08226      6.42261        -0.016034      0.015382      0.054367
Sc	      4.29889      8.10617      4.25239         0.040486      0.019609      0.042903
Sc	      2.27881      4.17754      6.31180         0.010631     -0.006463      0.016430
Sc	      6.46703      6.23774      8.50325        -0.058114      0.061246     -0.031383
Cr	      2.16130      2.07588      0.03204         0.026624     -0.013229     -0.000828
Cr	      2.18552      4.15234      2.13119        -0.098934      0.021824      0.023983
Fe	      4.35431      4.13911      8.47528         0.090538     -0.091465      0.125549
Cu	      6.49515      2.15757      4.26884         0.077336     -0.138314     -0.046047
Cu	      4.45080      4.20382      4.21253        -0.080566      0.014614      0.025003
O	      4.51547      2.32250      4.26657        -0.117625     -0.086955     -0.035937
O	      6.43588      4.12558      4.25407         0.142249      0.160055     -0.012585
O	      2.16723      2.16779      2.00526        -0.042270     -0.038976      0.015253
O	      4.12631      4.21033      2.11180         0.067277     -0.025396     -0.017246
O	      6.63792      2.12424      6.26530        -0.042392      0.037727      0.149280
O	      8.67763      4.11200      6.52886        -0.010317      0.000320     -0.078233
O	      2.11745      4.11950      4.20454        -0.029098     -0.000137      0.002307
O	      4.35090      6.10306      4.26851        -0.000012      0.065575     -0.012991
O	      4.31566      4.17246      6.52430        -0.006895     -0.023407     -0.163463
O	      6.51008      6.33260      6.45339        -0.025034     -0.030417     -0.010605
O	      6.52831      4.13072      8.59252        -0.054884     -0.018361      0.002966
O	      8.61290      6.26015      8.55370        -0.030177     -0.088767      0.027000
O	      2.11604      6.27499      6.41515        -0.013386     -0.013044     -0.038977
O	      4.33600      8.34403      6.32003        -0.039146     -0.018465      0.025660
O	      4.41559      6.09909      8.58207        -0.016395      0.148337     -0.014874
O	      6.62622      8.32402      8.54586        -0.046667      0.027030     -0.069955
O	      6.45468      6.22773     10.67694         0.023503     -0.049286      0.005067
O	      8.67879      8.27467     10.68280         0.064127      0.011263      0.006409
