# total energy = -91.16248735 eV
 
CRYSTAL
PRIMVEC
-2.175369 4.463856 -2.176799 
2.077193 4.364706 2.076532 
2.137541 0.051346 -6.391828 
PRIMCOORD
16 1
Li	      2.14139      6.94676     -4.52008        -0.206786     -0.225564      0.183959
Li	      0.03675      4.61623     -0.32755        -0.233947      0.026835      0.692295
Li	     -0.01516      2.33210     -2.26589         0.178414      0.258802     -0.200450
Li	      2.18820      4.61518     -2.29543         0.001284     -0.152346     -0.812792
Mn	      0.15646      0.19911     -0.16023        -2.989390     -0.139813      1.932322
Mn	     -0.04143      6.94601     -2.33984         0.750561     -1.627664     -0.238233
Ni	      0.00156      4.66590     -4.55311         1.063258      0.272192      0.406984
Ni	      2.15760      2.33406     -4.43213        -0.356740      1.357049      0.765331
O	     -0.03080      4.76424     -6.82314         0.459174     -0.007062      1.440725
O	     -0.02111      2.62927     -4.37915        -0.932318     -0.203677     -0.141526
O	      2.27367      4.56709     -4.51273        -0.108818     -0.363763     -0.204737
O	      2.17364      4.40294      0.03902         0.018174      0.358049     -1.741927
O	      2.09199      2.43657     -2.26012        -0.093691     -0.680790      0.933660
O	     -0.07759      7.10459     -0.17490         0.634531     -0.686826     -1.228631
O	     -0.14223      4.82516     -2.28401         0.954003      0.943736     -0.462752
O	      0.06760      2.12126     -0.02182         0.862290      0.870842     -1.324229
