# total energy = -240.27548365 eV
 
CRYSTAL
PRIMVEC
-0.012537 6.432104 6.210460 
6.440146 -0.015714 6.213492 
4.289573 4.286327 -0.006677 
PRIMCOORD
36 1
Li	      4.29276      4.37051      0.09863        -0.010963      0.046405      0.002877
Li	      2.10712      2.10320      0.10351        -0.023746      0.007094     -0.009117
Li	     10.62064      6.35954      8.16208        -0.028834     -0.017486      0.019104
Li	      8.60780      4.40048      8.16628         0.000311      0.043229     -0.038539
Li	      8.59927      6.40636      6.40910        -0.009453     -0.008985     -0.078885
Li	      6.46555      8.57436      6.31795         0.028366      0.000407     -0.020853
Li	      4.25610      6.41642      6.31687         0.018072     -0.035956      0.030195
Li	      8.51582      8.47227      8.18233        -0.035083     -0.010774     -0.036322
Li	      6.55407      6.43538      8.14128         0.053562      0.004485     -0.013348
Sc	      6.43964      6.43534      4.17663        -0.046855      0.117665      0.007439
Sc	      6.43386      4.23989      6.40017        -0.007493      0.010916      0.088207
Sc	      4.25752      8.59056      4.19621         0.007802      0.007016     -0.033138
Sc	      8.55699      6.44180     10.31896        -0.003596     -0.013607      0.083572
Cr	      4.29413      8.56919      8.16512        -0.003116      0.011457     -0.090497
Cr	      6.42845      2.14391      4.14968         0.036939     -0.090024      0.021774
Fe	      8.62949     10.67972     10.39734        -0.044844      0.004601     -0.137592
Fe	      4.23292      4.32715      4.18907         0.046201     -0.010238     -0.123676
Cu	      2.14201      6.42526      8.14864        -0.006623     -0.004414      0.043893
O	      2.28080      2.01742      2.07069        -0.043949      0.082700      0.019702
O	      4.39060      4.18601      2.15978        -0.205448      0.025784     -0.105788
O	      4.34954      2.14080      4.03816         0.020685      0.009201     -0.029122
O	      6.43039      4.22534      4.09724        -0.006649     -0.058719      0.106678
O	      6.42670      2.17241      6.10084         0.010919     -0.001852      0.061395
O	      8.52351      4.29667      6.06495        -0.007848     -0.023590      0.234298
O	      2.16820      4.26169      4.12170        -0.028672      0.034926     -0.022773
O	      4.30278      6.41002      4.10452        -0.013341      0.016701      0.036558
O	      4.33805      4.26454      6.06350        -0.010240     -0.007002      0.236171
O	      6.44732      6.33069      6.14600        -0.010290      0.009621      0.031208
O	      6.43715      4.26404      8.36581         0.029842      0.005616     -0.045289
O	      8.57645      6.41574      8.36513         0.003125      0.001523     -0.021499
O	      2.13866      6.41644      6.19252         0.001031      0.018195     -0.049919
O	      4.29207      8.57139      6.20105         0.009803     -0.013126     -0.051189
O	      4.15703      6.53330      8.37626         0.213206     -0.012425     -0.114384
O	      6.33427      8.65690      8.33146         0.030549     -0.111077     -0.008965
O	      6.37828      6.48693     10.33388         0.038801     -0.008738     -0.033117
O	      8.51683      8.60938     10.31426        -0.002172     -0.029526      0.040940
