# total energy = -241.65209852 eV
 
CRYSTAL
PRIMVEC
0.023397 6.366519 6.335899 
6.428864 0.002502 6.356558 
4.272741 4.245091 0.014764 
PRIMCOORD
36 1
Li	      6.41072      0.10960      6.31493        -0.045032      0.080342     -0.014274
Li	      8.46857      2.13795      6.33605        -0.007174     -0.043415      0.027937
Li	      8.43869      4.18545      4.36342        -0.088254     -0.018051      0.003429
Li	      6.58003      8.51582     10.64480         0.020310      0.017454      0.010844
Li	      6.45038      2.18669      8.35914         0.019600      0.023367     -0.023110
Li	      8.49754      4.25347      8.39911         0.000577     -0.012899     -0.049768
Li	      6.48725      4.17267      6.41316         0.025705      0.002135      0.036350
Li	      2.15840      4.24903      6.33428        -0.028337     -0.022066      0.013651
Li	      8.62405      8.44392      8.55020         0.058766      0.040638      0.051869
Sc	      4.22761      2.17263      2.06567        -0.066470      0.036258     -0.014749
Sc	      6.41312      4.27131     10.56907        -0.018613      0.063717      0.015896
Sc	      4.28908      6.24485      6.37603         0.043644      0.007999      0.063831
Sc	      6.52761      6.39902      8.44482        -0.048970      0.008268      0.090469
Cr	      4.43111      2.04691      6.34493         0.262028     -0.097360     -0.021077
Cr	      2.15923      6.37693      4.24736        -0.041635      0.031373     -0.028005
Fe	      6.36647      4.23452      2.15124         0.061756     -0.002524     -0.099012
Fe	      4.28748      4.19625      4.24165         0.037160      0.046015     -0.119103
Ni	      6.43921      6.35595      4.24944        -0.054943      0.030816     -0.023736
O	      2.16061      2.02621      2.15776         0.024153      0.022071     -0.151687
O	      4.35405      4.21902      2.19898        -0.064280     -0.014592     -0.060234
O	      4.23521      2.18322      4.30887         0.066839     -0.055532      0.015720
O	      6.32118      4.30436      4.15273         0.031395     -0.124002      0.039013
O	      6.23843      2.16091      6.35012        -0.210005     -0.032732     -0.032173
O	      8.54930      4.48287      6.34132         0.012706      0.128009      0.038238
O	      2.20918      4.29324      4.21128        -0.021502      0.088689     -0.010240
O	      4.23749      6.32286      4.26757        -0.060388     -0.006618      0.006259
O	      4.28687      4.14192      6.24687        -0.025023     -0.012281      0.095259
O	      6.47494      6.37890      6.34424         0.018628      0.005329      0.102822
O	      6.43818      4.34683      8.53492        -0.005729      0.014748      0.008898
O	      8.56892      6.41206      8.44756        -0.002157     -0.008774      0.037599
O	      2.20687      6.33525      6.32512         0.034813     -0.028730     -0.009443
O	      4.29772      8.37504      6.35994         0.030537     -0.039687      0.001089
O	      4.28866      6.40059      8.43959        -0.019764     -0.037349     -0.007261
O	      6.37379      8.55480      8.47524        -0.004748     -0.076884      0.015208
O	      6.59323      6.33583     10.55815         0.028222      0.001514      0.018156
O	      8.63345      8.37656     10.63838         0.036187     -0.015246     -0.028666
