# total energy = -245.95630126 eV
 
CRYSTAL
PRIMVEC
0.014474 6.450533 6.271605 
6.456010 0.007819 6.278237 
4.313088 4.313760 -0.003561 
PRIMCOORD
36 1
Li	      4.30301      4.32254      0.04823         0.007672     -0.001339     -0.003964
Li	      4.55206      8.55608      8.29781        -0.085222     -0.002579     -0.055174
Li	      6.41131      8.62092     10.32322         0.042668     -0.017258      0.072897
Li	      8.66683      4.45050      8.33291        -0.010186     -0.022624     -0.039056
Li	      8.61772      6.47132      6.37926         0.001910      0.004430     -0.000471
Li	      6.46448      8.58195      6.42797        -0.004123      0.045359     -0.106854
Li	      4.34666      6.46036      6.42465        -0.002393     -0.025194      0.027107
Li	      8.43253      8.61949      8.32619         0.047707      0.006049     -0.030873
Li	      6.46805      6.72034      8.24175         0.051984      0.052951      0.012167
Sc	      2.22305      2.16698      0.07118         0.010883      0.014458     -0.003287
Sc	      6.47642      6.52234      4.24742         0.030169     -0.026890      0.021552
Sc	      6.41450      4.34205      6.41106        -0.024585     -0.003425      0.071986
Sc	      8.55881      6.45096     10.43252        -0.096646      0.065807      0.044224
Cr	      6.48097     10.67101      8.32511         0.045145     -0.011079     -0.019919
Cr	     10.73090      6.42542      8.34666         0.013732      0.013152     -0.074293
Fe	      4.43567      6.51363     10.38278        -0.071653      0.036482      0.068947
Fe	      4.32643      4.17153      4.21860        -0.046812      0.064651     -0.084833
Fe	      6.43518      4.34787     10.46032         0.104494     -0.063378     -0.088526
O	      2.03742      2.03033      2.11839        -0.025176     -0.027938      0.032537
O	      4.39347      4.38058      2.19282        -0.022156     -0.014239     -0.026406
O	      4.24884      2.15841      4.15180         0.000640     -0.055993      0.013292
O	      6.43180      4.34796      4.14689         0.018931     -0.003809     -0.004800
O	      6.52722      2.20382      6.35686        -0.015108     -0.004067      0.004550
O	      8.55845      4.26923      6.11191         0.001773      0.026300      0.089388
O	      2.18124      4.30455      4.15108         0.008469     -0.014784      0.028376
O	      4.29767      6.46866      4.11088        -0.002763     -0.058760     -0.004862
O	      4.37571      4.30186      6.11007        -0.003808     -0.021832      0.196622
O	      6.44471      6.39576      6.25548         0.016583     -0.017542     -0.009632
O	      6.50282      4.14911      8.44320         0.056646     -0.043745     -0.015432
O	      8.73708      6.43491      8.41250        -0.004362      0.028270     -0.021415
O	      2.15608      6.51044      6.29091         0.001630     -0.003455     -0.007568
O	      4.29007      8.61249      6.12323        -0.002042      0.009420      0.117998
O	      4.19118      6.45416      8.48482        -0.044150      0.018818     -0.170669
O	      6.47540      8.72527      8.36451        -0.018050     -0.030631     -0.017984
O	      6.44395      6.37492     10.37795         0.092701      0.059568      0.008152
O	      8.71982      8.60304     10.47306        -0.074501      0.024847     -0.023779
