# total energy = -232.13679180 eV
 
CRYSTAL
PRIMVEC
0.044547 6.333720 6.347167 
6.317129 0.057629 6.334799 
4.240881 4.243530 0.008803 
PRIMCOORD
36 1
Li	      8.36391      2.21661      6.44916        -0.021495      0.002679      0.046646
Li	      4.22477      2.17588      2.10658        -0.025402     -0.036504      0.029822
Li	      6.22411      2.21225      8.34710         0.015869      0.000361      0.006241
Li	      8.44993      4.39356      8.36228         0.007983      0.094887     -0.016423
Li	      4.30942      2.19311      6.44216         0.014109      0.024166     -0.047348
Li	      6.31411      4.19484      6.41976        -0.045490      0.014940      0.034976
Li	      8.46145      6.41883     10.45936         0.026397      0.037242     -0.043740
Li	      2.12971      4.27406      6.35256         0.015876     -0.034446     -0.026750
Li	      8.51357      8.42504      8.43709         0.039317      0.028659      0.000800
Sc	      2.15752      2.09013      4.21737         0.046884      0.054469     -0.004619
Sc	      4.16190      4.24150      4.19753        -0.028322     -0.048385     -0.003614
Sc	      4.13932      6.35186      6.45116         0.028410     -0.036065      0.015148
Sc	      6.50210      6.46950      8.41815         0.025302     -0.022740     -0.028578
Cr	      6.29985      0.11905      6.36679        -0.077875      0.082126     -0.003317
Cr	     10.49140      8.52347     10.54618        -0.020744      0.038953     -0.230438
Ni	      6.37958     10.54673      8.46246         0.024124     -0.048573      0.023645
Ni	      8.45621      4.29193      4.24617        -0.022675      0.030888      0.050343
Ni	      6.41183      8.50202     10.59287         0.045242     -0.085490      0.074418
O	      2.11173      1.87623      2.14718        -0.008174      0.142490     -0.017974
O	      4.28556      4.23108      2.01339        -0.113857     -0.052634      0.083761
O	      4.22464      2.16836      4.24262        -0.080523      0.086357     -0.011794
O	      6.35330      4.22377      4.20697        -0.121692      0.114773      0.048427
O	      6.36625      1.98527      6.26052         0.003814     -0.089616      0.171173
O	      8.68704      4.23782      6.31704         0.063190      0.001917      0.120227
O	      2.08341      4.15549      4.17891        -0.056879      0.025319      0.007423
O	      4.23800      6.42688      4.29308        -0.003434      0.029898     -0.013547
O	      4.23094      4.33877      6.22341        -0.017987      0.017136      0.036789
O	      6.26442      6.34514      6.37789        -0.037875      0.015115     -0.067680
O	      6.39825      4.32997      8.66137        -0.049470      0.000213      0.091114
O	      8.44389      6.43269      8.44301        -0.026238     -0.004644     -0.001337
O	      2.01104      6.30742      6.41224         0.046582      0.020680     -0.075020
O	      4.32842      8.55136      6.15181        -0.015290     -0.010505      0.016832
O	      4.23549      6.39923      8.49337         0.061337     -0.015027     -0.105963
O	      6.40031      8.59175      8.55847        -0.025862     -0.097034     -0.149458
O	      6.34518      6.34600     10.62836         0.146751     -0.156329      0.028633
O	      8.63388      8.55765     10.60229         0.188095     -0.125277     -0.038816
