# total energy = -240.41309825 eV
 
CRYSTAL
PRIMVEC
-0.006795 6.410610 6.446564 
6.448866 0.015592 6.424650 
4.309401 4.269016 0.000577 
PRIMCOORD
36 1
Li	      6.52378      6.34690     12.68628         0.099965     -0.022177      0.004372
Li	      4.48196      6.35465     10.66730         0.004902      0.030836     -0.067017
Li	      8.46648      4.45124      8.55098        -0.042110     -0.012756     -0.040408
Li	      8.57091      6.36558      6.56074        -0.033086     -0.023489      0.070597
Li	      6.43400      4.54124     10.68297        -0.009553     -0.021359      0.032006
Li	      8.39344      6.40050     10.60231         0.052569      0.004032      0.007789
Li	      2.07540      4.36399      6.45276        -0.031976      0.074305     -0.029103
Li	      8.55048      8.44846      8.74206        -0.078335     -0.001576     -0.001941
Li	      6.63444      6.38053      8.71732        -0.003990      0.034099     -0.060049
Sc	      8.58316      8.61909     12.73216        -0.016825     -0.047779     -0.011542
Sc	     10.54262      6.44984      8.60933        -0.002703     -0.009786      0.022262
Sc	      2.22130      2.18463      4.29151         0.033245      0.030355      0.019170
Sc	      4.28832      6.38542      6.48120        -0.020899      0.022379      0.054869
Mn	      6.48432      4.28214      6.49460        -0.052420      0.008296      0.043192
Cr	      6.47138     10.65418      8.59632         0.026238     -0.064086     -0.007702
Fe	      4.40926      8.54804      8.55757        -0.034938      0.020563      0.010797
Fe	      4.26446      4.23367      4.33117         0.117412      0.013802     -0.061648
Cu	      6.52988      8.38805     10.67992        -0.014552      0.075831     -0.008405
O	      6.44342      6.47609     10.76019         0.004218     -0.108256     -0.071241
O	      2.17786      2.03374      2.17541         0.014395      0.031076      0.023914
O	      4.42223      4.25403      2.22490        -0.005944      0.009439      0.060248
O	      4.31696      2.20833      4.16823        -0.110655     -0.042160      0.024517
O	      6.37626      4.23097      4.30705         0.009146      0.019126      0.051689
O	      6.47300      2.34011      6.52730        -0.020451      0.056001      0.114704
O	      8.38095      4.27094      6.43641        -0.118015     -0.003723      0.003242
O	      2.30134      4.20583      4.35647        -0.097263     -0.032808      0.007339
O	      4.40103      6.34272      4.30263         0.030006     -0.036220     -0.002825
O	      4.47835      4.30327      6.32607         0.093866     -0.033377      0.061288
O	      6.41598      6.23200      6.37743         0.009079     -0.065557     -0.018474
O	      6.42569      4.26659      8.38916        -0.004537      0.013795     -0.022234
O	      8.62463      6.39935      8.58389         0.061957      0.005009      0.056033
O	      2.19101      6.46157      6.59463         0.007922      0.034486     -0.041565
O	      4.24373      8.51948      6.53465        -0.040086      0.029551     -0.108882
O	      4.17924      6.52084      8.56004         0.009123     -0.025229     -0.044617
O	      6.35460      8.66420      8.49292         0.090038      0.013243     -0.078542
O	      8.56611      8.52982     10.75167         0.074258      0.024114      0.008167
