# total energy = -244.27203064 eV
 
CRYSTAL
PRIMVEC
0.047015 6.401066 6.549078 
6.352218 0.019420 6.577421 
4.250171 4.300537 -0.002417 
PRIMCOORD
36 1
Li	      2.30114      8.46939      6.56579         0.056173     -0.035393      0.002538
Li	      2.35204      6.32889      8.76275        -0.044431      0.001258      0.040878
Li	      4.39182      8.31755      8.73934        -0.035779      0.025728      0.002192
Li	      4.30961      6.36693     10.66581        -0.016500     -0.038548      0.057857
Li	      6.28214      8.67173     10.67888        -0.060278      0.079975     -0.097734
Li	      4.38444      4.17397      4.37502        -0.048764     -0.022729     -0.036411
Li	      4.18833      6.49734      6.90141        -0.031003      0.055531      0.040355
Li	      4.18752      4.53071      8.79655        -0.010398     -0.021541      0.042479
Li	      6.14044      6.56326      8.77754        -0.001950     -0.009346      0.037681
Sc	      2.18402      4.25752      2.14747         0.035181     -0.048283      0.015070
Sc	      2.18503      2.03443      4.31017         0.090868     -0.005444     -0.069182
Sc	      6.28648      4.28470      6.54142         0.035792      0.003710     -0.045851
Sc	      8.48787      6.53018     10.93852         0.002426      0.012184      0.032987
Mn	     10.58984      8.62289     10.95038         0.028116      0.014154      0.006468
Cr	      0.06943      6.39012      6.54036        -0.053859      0.050738      0.029730
Fe	      0.03353      2.10205      2.15916         0.058588      0.029843     -0.066045
Fe	      4.22236      2.17086      6.45214         0.091641     -0.082635      0.132064
Fe	      6.40167      8.60029      6.83388         0.011330     -0.033499     -0.079117
O	      2.06217      2.18338      2.23449         0.002111      0.012118     -0.015603
O	      4.24814      4.41078      2.03694         0.008981     -0.081753     -0.004212
O	      4.20903      2.19348      4.50948         0.000869     -0.022927     -0.106848
O	      6.33630      4.34112      4.51278        -0.035925     -0.018377      0.026313
O	      6.29069      2.12089      6.65982         0.007560     -0.017166     -0.026370
O	      8.51828      4.41284      6.64774         0.015310     -0.047579     -0.016055
O	      1.99224      4.27627      4.29326         0.012207      0.013210      0.010925
O	      4.26814      6.51634      4.22813        -0.052046      0.100350     -0.002836
O	      4.20435      4.16638      6.55552         0.029848      0.070775     -0.019321
O	      6.43745      6.44636      6.49258        -0.003381     -0.025720     -0.027038
O	      6.42263      4.17690      8.66261         0.030780      0.030254     -0.036608
O	      8.58700      6.36977      8.80242        -0.050602      0.056328     -0.057973
O	      2.09327      6.31758      6.46741        -0.001923      0.055469     -0.040860
O	      4.38913      8.68699      6.53998        -0.074954     -0.016847      0.042330
O	      4.26591      6.42627      8.76199         0.038414      0.002184     -0.034377
O	      6.40699      8.55559      8.67685         0.010928     -0.005580      0.214518
O	      6.42219      6.35492     11.08130        -0.025148     -0.100442      0.046916
O	      8.70105      8.54219     11.00945        -0.020184      0.020002      0.001141
