# total energy = -241.93213159 eV
 
CRYSTAL
PRIMVEC
-0.000968 6.197544 6.418894 
6.445488 -0.009923 6.427617 
4.301429 4.141558 -0.010857 
PRIMCOORD
36 1
Li	      4.38725     10.31614      6.48875         0.022709      0.022332     -0.042942
Li	      6.54495      4.15985      2.28485        -0.087968      0.038914      0.109622
Li	      4.24295      6.21241     10.53897        -0.069127     -0.036439      0.162136
Li	      2.21820      4.06404      2.17826        -0.033727     -0.002983      0.042307
Li	      6.32314      6.24495      4.19097         0.013865     -0.114395      0.048819
Li	      4.44837      4.07865      4.20464         0.067788      0.086705      0.054675
Li	      4.30740      6.16332      6.61253         0.021816      0.036295     -0.133982
Li	      4.27062      4.32769      8.55658         0.067158     -0.136864      0.046069
Li	      6.15424      6.27936      8.58987         0.169800     -0.030631      0.026226
Sc	      2.25392      8.25842      6.49992        -0.016303      0.050513     -0.150145
Sc	      8.59323      6.12611      6.42096        -0.029995     -0.134014     -0.023879
Sc	      8.56535      6.16504     10.58038        -0.023458     -0.128843     -0.009046
Sc	      6.45014      8.29611      6.49511        -0.060551     -0.096571     -0.236286
Mn	      4.33776      6.11916      2.14834        -0.039256      0.224214      0.099186
Cr	      6.39061      4.13853      6.43494         0.059096      0.153246     -0.127775
Cr	      6.41512      4.16549     10.61350         0.006968      0.101210     -0.029862
Co	      6.44889      8.26049     10.56738        -0.169375      0.206270      0.315216
Cu	      4.33317      2.09402      2.28137         0.010302      0.189903      0.013971
O	      4.23757      6.39439      8.55456         0.005063      0.247816      0.060252
O	      1.97205      2.03458      2.13878         0.147327     -0.018266     -0.088715
O	      4.29977      4.19360      2.13134         0.006204     -0.569474      0.051046
O	      4.54713      2.05921      4.34733        -0.297429     -0.201238     -0.338691
O	      6.44966      3.95087      4.46355         0.139554      0.778457      0.091784
O	      6.46383      2.08152      6.57799         0.037467     -0.092381      0.121090
O	      8.41154      4.09396      6.45657         0.098089      0.021174      0.079146
O	      1.96554      4.12247      4.31977         0.138923      0.051891      0.022384
O	      4.27297      6.27931      4.05393        -0.044379     -0.079651      0.019819
O	      4.31118      4.10585      6.43330        -0.069783      0.030930      0.104910
O	      6.50920      6.15333      6.40880        -0.046140      0.007648      0.144774
O	      6.40679      3.97616      8.56487        -0.039599      0.012576     -0.093058
O	      8.83919      6.12732      8.52328        -0.028715     -0.003311     -0.160662
O	      2.17620      6.19703      6.26194         0.062431     -0.001815      0.157319
O	      4.30042      8.31483      6.21608        -0.035866     -0.045960      0.086039
O	      6.48102      8.30076      8.55269        -0.290524     -0.021470     -0.263102
O	      6.50771      6.22835     10.59825        -0.018639     -0.574484     -0.152324
O	      8.59574      8.26170     10.72647         0.326275      0.028694     -0.006322
