# total energy = -242.16099926 eV
 
CRYSTAL
PRIMVEC
-0.037378 6.416896 6.330694 
6.366233 -0.034592 6.327535 
4.221257 4.252872 0.000056 
PRIMCOORD
36 1
Li	      8.36988      8.55644     12.53122        -0.016051      0.015948      0.021929
Li	      6.36135      2.11167      4.42004        -0.002238      0.036075      0.008553
Li	      8.33194      4.32188      8.59678        -0.001439     -0.018682      0.056977
Li	      6.33979      6.43748      4.32866         0.009657     -0.004850     -0.023081
Li	      4.09518      4.32272      4.38421        -0.018864      0.046779     -0.073933
Li	      4.29668      2.01172      6.23050         0.061257     -0.075950     -0.003585
Li	      6.34529      4.31319      6.25531         0.007117      0.091246     -0.008723
Li	      0.04519      4.28246      4.22376        -0.038699     -0.027657     -0.022666
Li	      6.43168      6.25247      8.37836        -0.008452     -0.024157     -0.087891
Sc	      6.34305      4.25343      2.18736        -0.035644      0.030045      0.119933
Sc	      4.20634      2.13507      2.17737        -0.036557      0.027490      0.100339
Sc	      6.38504      2.16725      8.45427         0.048939      0.035276     -0.072677
Sc	      8.47805      8.46636      8.43869         0.060988     -0.026100     -0.074379
Mn	      8.49818      4.20800      4.28434         0.015374      0.057863      0.080939
Cr	      6.30317      6.39459     12.59482        -0.048000     -0.010369      0.086552
Cr	      2.08898      4.22090      6.22779         0.012539      0.013197      0.081559
Co	      4.22455      6.42215      6.21960         0.012364     -0.035933     -0.012030
Ni	      2.08702      6.34074      4.20651        -0.133818      0.176902     -0.024352
O	      2.13330      2.05927      2.10416         0.005185     -0.035614      0.039779
O	      4.26691      4.22423      2.03778         0.003830     -0.021494     -0.019578
O	      4.26791      1.91174      4.20601         0.023968     -0.050242     -0.048193
O	      6.56552      4.19661      4.21721         0.012938      0.005493     -0.075859
O	      6.36199      1.92671      6.40636         0.031674     -0.060589      0.002995
O	      8.58313      4.19815      6.15585         0.023958     -0.038134     -0.099957
O	      2.09628      4.31318      4.27632        -0.032759     -0.095488     -0.004661
O	      4.14680      6.40041      4.30771         0.067350      0.024712      0.114869
O	      4.12621      4.46219      6.31863        -0.001310      0.069652      0.024505
O	      6.11528      6.48922      6.29879        -0.077451      0.012044      0.000008
O	      6.30602      4.18161      8.36447        -0.049376     -0.015385      0.008501
O	      8.47796      6.42140      8.48163        -0.005313      0.010217     -0.080787
O	      2.09049      6.32534      6.29008         0.002087     -0.016908      0.052480
O	      4.27074      8.47725      6.34265         0.011375      0.013372      0.028595
O	      4.19334      6.41180      8.45384         0.010406     -0.015069     -0.039109
O	      6.30495      8.58275      8.31339         0.007954      0.006674     -0.021364
O	      6.22386      6.38263     10.62982         0.051138     -0.036675     -0.024693
O	      8.43294      8.67225     10.50167         0.025872     -0.063684     -0.010996
