# total energy = -239.68413467 eV
 
CRYSTAL
PRIMVEC
0.009230 6.377595 6.358332 
6.328676 -0.006614 6.374214 
4.229848 4.272998 -0.015087 
PRIMCOORD
36 1
Li	      0.03952      0.04408      0.05282         0.030900     -0.011600     -0.012677
Li	      2.03261      0.06760      2.03243         0.010875     -0.004861     -0.041917
Li	      4.29539      6.35000      2.17432        -0.006264     -0.011054      0.009997
Li	      8.39028      4.24289      8.49128         0.005096     -0.038823      0.023565
Li	      6.15528      6.52647      4.39328         0.096968     -0.099388     -0.025855
Li	      0.14315      4.12941      4.19620        -0.040482      0.007233     -0.061210
Li	      6.37408      8.28812      6.24167         0.002310     -0.076209      0.073519
Li	      4.30174      6.44414      6.25663        -0.065995     -0.002466      0.044029
Li	      6.38321      6.31980      8.36862        -0.019945      0.022251      0.035973
Sc	      4.24424      8.56045      8.39632        -0.012507      0.046099     -0.038827
Sc	      4.29690      6.40693     10.62029        -0.031881     -0.006686     -0.032249
Sc	      2.14216      6.26983      4.19454        -0.012264     -0.094471      0.030755
Sc	      4.22859      4.27733      8.38009         0.015106      0.016742     -0.041781
Mn	      2.12258      2.10233      0.04153        -0.011137      0.038311      0.004160
Cr	      6.33452      2.14759      4.24162         0.074734      0.051539      0.021444
Cr	      6.34234      4.29544      6.41311        -0.003889      0.048606     -0.018292
Cu	      4.21854      4.30375      4.22116        -0.007409      0.039398      0.081837
Ni	      8.41427      6.36500      6.45289         0.112484     -0.048722     -0.011518
O	      6.40346      6.27592      6.34341        -0.128252      0.016328      0.034136
O	      2.12454      2.12938      1.88043        -0.018621      0.009271      0.066839
O	      4.23295      4.21354      2.26921        -0.028966      0.054088     -0.229468
O	      4.32964      2.13111      4.28931        -0.098911      0.006908     -0.074844
O	      6.31855      4.16898      4.36655         0.016386     -0.013065     -0.057810
O	      6.42913      2.21176      6.27665         0.031188     -0.004081      0.004729
O	      8.36557      4.18035      6.36390         0.087955     -0.038747     -0.024656
O	      2.17756      4.25870      4.29771        -0.095841     -0.040902     -0.063889
O	      4.21436      6.29672      4.24111        -0.000392      0.090117     -0.023787
O	      4.30585      4.18458      6.31715        -0.057648      0.089803      0.061686
O	      6.26994      4.27212      8.40512         0.012641     -0.017008      0.062936
O	      8.44106      6.46540      8.49406         0.027706     -0.031926      0.140109
O	      2.07780      6.62860      6.29188         0.070349     -0.024927      0.083601
O	      4.04575      8.54692      6.35292         0.027285      0.009033     -0.009637
O	      4.18940      6.39733      8.59269        -0.000982     -0.012214     -0.031846
O	      6.33331      8.54275      8.56057         0.031964     -0.018351      0.039304
O	      6.33240      6.50591     10.66125        -0.029393      0.044046     -0.062035
O	      8.38742      8.53953     10.64232         0.016830      0.005733      0.043680
