# total energy = -90.72920962 eV
 
CRYSTAL
PRIMVEC
-2.185778 4.485214 -2.187214 
2.087132 4.385590 2.086468 
2.147768 0.051591 -6.422410 
PRIMCOORD
16 1
Li	      2.16193      7.01339     -4.56344        -0.216545     -0.227457      0.192704
Li	      0.04737      4.66076     -0.36141        -0.254653      0.029682      0.749042
Li	     -0.01530      2.35447     -2.28762         0.195776      0.288533     -0.219898
Li	      2.20919      4.65946     -2.31744         0.005959     -0.168136     -0.879396
Mn	      0.17823      0.22226     -0.18251        -3.224338     -0.159787      2.173724
Mn	     -0.04183      7.01264     -2.36228         0.787140     -1.745263     -0.244138
Ni	      0.00158      4.71066     -4.59678         1.127030      0.263143      0.447216
Ni	      2.17829      2.35644     -4.47464        -0.373722      1.435229      0.846184
O	     -0.03109      4.80994     -6.88859         0.489896      0.008079      1.592562
O	     -0.01132      2.67547     -4.41118        -0.944468     -0.206637     -0.157641
O	      2.29548      4.61090     -4.55601        -0.164288     -0.387127     -0.225981
O	      2.19450      4.44518      0.03940         0.032359      0.430161     -1.960821
O	      2.10160      2.48141     -2.29226        -0.106237     -0.738608      0.918948
O	     -0.07833      7.17274     -0.17658         0.677264     -0.742867     -1.285314
O	     -0.14360      4.87144     -2.30592         1.079788      0.983032     -0.499432
O	      0.06824      2.14161     -0.02203         0.889039      0.938023     -1.447760
