# total energy = -239.52627712 eV
 
CRYSTAL
PRIMVEC
0.002135 6.415892 6.231171 
6.399505 0.005006 6.228213 
4.293498 4.302005 -0.023163 
PRIMCOORD
36 1
Li	      6.41132      4.26489      2.10023         0.017797     -0.035209      0.005194
Li	      8.57671     10.57131     10.31349         0.109780     -0.002131     -0.050571
Li	      6.52856      8.59451     10.26336        -0.006383     -0.092077     -0.069014
Li	      8.51727      4.35488      8.34428        -0.056433      0.041857      0.059261
Li	      8.53383      6.49507      6.29973        -0.088933      0.141018      0.059095
Li	      6.30846      4.36678     10.23808        -0.019459      0.102289     -0.004809
Li	      8.49829      6.43119     10.33220        -0.161207      0.010708     -0.054676
Li	      2.18447      4.26493      6.22042         0.049775     -0.106261     -0.022275
Li	      8.57335      8.51944      8.43364        -0.010898      0.016167     -0.036167
Sc	      6.39623      6.43215     12.37073        -0.008729      0.052814     -0.325801
Sc	      2.16611      2.19218      4.07456         0.057837      0.152931      0.047518
Sc	      6.48138      4.21534      6.23515        -0.228820      0.029469      0.307274
Sc	      4.14863      6.44181      6.20948         0.292062     -0.064362      0.128056
Mn	      4.37546      8.55545      8.29335         0.148334     -0.039521      0.235289
Cr	      4.27372      4.27087      4.10585        -0.158952     -0.080664     -0.094534
Cr	      6.49421      6.45745      8.37399        -0.211345     -0.121450     -0.095141
Cu	      8.55068      8.57450     12.38471         0.036136      0.056749     -0.030080
Cu	     10.47567      6.49995      8.34647        -0.318989      0.093723      0.002298
O	      8.39502      6.51301      8.32636         0.374087     -0.060578     -0.047420
O	      8.54314      8.57608     10.47788        -0.007028     -0.056820      0.380854
O	      2.34977      2.11804      1.99618         0.154057     -0.040181     -0.312393
O	      4.33608      4.09054      2.07113         0.067209     -0.037818     -0.014632
O	      4.27179      2.24725      4.00927        -0.041483     -0.002948     -0.073296
O	      6.31858      4.34517      4.15391         0.065072     -0.033717     -0.014014
O	      6.25186      2.11388      6.46491         0.094198     -0.040528     -0.061016
O	      8.56847      4.22382      6.18377        -0.023749     -0.402190      0.028968
O	      2.26781      4.21094      4.13727         0.136788     -0.059385      0.028845
O	      4.30988      6.34870      4.03948         0.069973      0.006204      0.222082
O	      4.30832      4.37417      6.12676         0.005305      0.049138     -0.065820
O	      6.38265      6.36555      6.24565         0.020280     -0.017250     -0.292258
O	      6.38724      4.45727      8.29664        -0.058551     -0.117736     -0.134842
O	      2.12217      6.48182      6.23949        -0.004993      0.360229     -0.054231
O	      4.42113      8.57603      6.35772        -0.005353      0.045434     -0.050921
O	      4.41055      6.59335      8.29400        -0.168608     -0.020729     -0.143100
O	      6.30135      8.43361      8.30944        -0.049822      0.317076     -0.077425
O	      6.42185      6.43809     10.31780        -0.068957     -0.044252      0.619701
