# total energy = -242.81046168 eV
 
CRYSTAL
PRIMVEC
0.029609 6.410794 6.387354 
6.445500 0.053882 6.363043 
4.302427 4.263386 0.030074 
PRIMCOORD
36 1
Li	      6.40351      0.06534      6.31008         0.021380     -0.022739     -0.010047
Li	      4.40389      8.48846      8.47752         0.046420     -0.008647      0.045424
Li	      4.35497      6.52579     10.55115        -0.056105     -0.017088     -0.026142
Li	      6.40264      2.05677      4.35848        -0.016829      0.031530      0.060105
Li	      8.59666      4.35913      8.40126        -0.022510     -0.033611      0.038758
Li	      6.48252      4.29361      6.43781         0.014199      0.010230     -0.056786
Li	      4.38213      6.43080      6.53311         0.050065     -0.051869     -0.041323
Li	      4.38177      4.38113      8.36287        -0.011058      0.025178     -0.095890
Li	      6.34829      6.45393      8.51032        -0.013596      0.014506     -0.041420
Sc	      2.31100      6.35066      8.52398        -0.003552     -0.141579      0.188558
Sc	     10.65966      6.45039      8.46938         0.080657      0.015482      0.264084
Sc	      2.20727      2.14020      4.27182         0.031273     -0.139278      0.028770
Sc	      6.41596      4.48584     10.53950        -0.040215     -0.025096     -0.013801
Mn	      8.61030      2.29294      6.40785        -0.051086     -0.041775      0.077743
Cr	      8.58905      6.49490     10.65934         0.069048      0.038021     -0.089970
Cr	      6.42571      8.53458      6.48433         0.292779     -0.158291     -0.236184
Fe	      8.62830      6.31238      6.40107        -0.364279      0.257861     -0.032012
Cu	      4.37063      4.21300      4.26135         0.076737     -0.047124      0.142047
O	      2.12635      2.12625      2.03451        -0.034153      0.044399     -0.081749
O	      4.37425      4.29001      2.31400        -0.017279      0.004706     -0.188339
O	      4.25731      2.12382      4.36328        -0.049186     -0.049138     -0.052747
O	      6.46942      4.39052      4.24131         0.079439      0.076561     -0.018038
O	      6.32439      2.16728      6.40579         0.076794     -0.029745     -0.038328
O	      8.61704      4.28682      6.39913         0.037742     -0.200237      0.025961
O	      2.09512      4.36130      4.40231        -0.099091      0.070342     -0.194915
O	      4.28073      6.50344      4.25517        -0.067701      0.075338     -0.004533
O	      4.08275      4.17105      6.24715         0.110290      0.008646     -0.025104
O	      6.52534      6.53508      6.36523        -0.019295     -0.110082      0.001343
O	      6.42522      4.25933      8.54244         0.031436     -0.014669     -0.070855
O	      8.62024      6.44183      8.54588         0.037713     -0.060903      0.018347
O	      2.18666      6.38827      6.34760        -0.016869      0.283378     -0.003826
O	      4.51038      8.55685      6.36443        -0.327518      0.047117     -0.013952
O	      4.27122      6.38788      8.52211         0.066864      0.026345     -0.016118
O	      6.47514      8.54551      8.28846         0.045127      0.097173      0.420350
O	      6.62385      6.48551     10.61580        -0.015491      0.010925      0.039183
O	      8.63887      8.52108     10.87666         0.057850      0.014132      0.001408
