# total energy = -243.90960094 eV
 
CRYSTAL
PRIMVEC
-0.002572 6.366040 6.424832 
6.340410 0.025118 6.396843 
4.228509 4.226970 0.015244 
PRIMCOORD
36 1
Li	      8.46815      8.55105     12.75373        -0.014182      0.005914      0.002828
Li	      2.08449      4.23539      2.21651         0.007193      0.010069      0.089140
Li	      6.30704      6.41677      4.47194         0.005038      0.010072      0.001186
Li	      8.40567      6.35655      6.43396         0.011396     -0.023749      0.011807
Li	      6.32980      4.34628      6.39051         0.057811      0.015454      0.018122
Li	      0.07169      4.18888      4.27733         0.040486      0.007357     -0.051185
Li	      6.33426      8.38731      6.33844        -0.013399     -0.000031      0.003023
Li	      4.36070      6.35168      6.30354         0.022971      0.041962      0.002907
Li	      4.32538      4.18878      8.42517         0.058803     -0.018525     -0.072665
Sc	      2.18037      6.32343      8.41218        -0.053723      0.002361     -0.002324
Sc	      6.33610      2.31458      8.48278         0.052402      0.020541     -0.025921
Sc	      4.18237      4.22942      4.50948         0.016697      0.016245     -0.040185
Sc	      6.41543      6.31253      8.37684         0.037521     -0.006425      0.010615
Mn	      4.17532      2.13658      2.13244        -0.030984      0.070027     -0.073101
Cr	      8.42178      4.19723      4.31952        -0.044962     -0.000765      0.005213
Cr	      2.12334      6.38411      4.33875         0.003011      0.000728     -0.006559
Fe	     10.48177      4.23918      6.36918         0.026162     -0.093717      0.127996
Ni	      6.35811      2.12652      4.35887        -0.070126      0.051356     -0.003021
O	      2.20039      2.06663      2.16518         0.048625     -0.010132     -0.008079
O	      4.26024      4.12851      2.14136        -0.024382     -0.071337     -0.031669
O	      4.23756      2.06751      4.13029        -0.095643     -0.032968     -0.027964
O	      6.39940      4.18262      4.20214         0.002827      0.113002      0.011531
O	      6.31375      2.00806      6.45689        -0.001982      0.050160      0.068833
O	      8.53437      4.24318      6.26339        -0.140459     -0.027729     -0.002460
O	      2.14485      4.38037      4.30899        -0.018851      0.019940      0.001576
O	      4.13790      6.33522      4.24451         0.023688      0.025464      0.014787
O	      4.22931      4.25325      6.42030         0.013107      0.025117      0.059837
O	      6.35280      6.36914      6.45685         0.023537      0.024416     -0.004889
O	      6.37925      4.27326      8.52996        -0.017017     -0.017350      0.027440
O	      8.47292      6.41126      8.69157         0.027569     -0.014975     -0.011855
O	      2.00621      6.37782      6.37619        -0.006874      0.008329     -0.034640
O	      4.19769      8.56149      6.68060        -0.019201     -0.075802      0.048852
O	      4.23533      6.53337      8.63843         0.006165      0.026530      0.013328
O	      6.13278      8.47816      8.62644        -0.067118     -0.010190     -0.047015
O	      6.32410      6.38927     10.73512        -0.008163     -0.103020     -0.059111
O	      8.39047      8.52832     10.66792         0.142056     -0.038329     -0.016379
