# total energy = -248.03798332 eV
 
CRYSTAL
PRIMVEC
0.017293 6.219302 6.364055 
6.426001 -0.012189 6.393412 
4.303941 4.186191 -0.027893 
PRIMCOORD
36 1
Li	     10.58149      4.26316      6.41024        -0.087510     -0.053427      0.007041
Li	      6.40332      4.17759      2.13884         0.011885      0.015509      0.009846
Li	      8.55537      4.16521      4.35000        -0.017329      0.018225      0.009341
Li	      8.66267      4.16736      8.39797         0.001804     -0.005776     -0.010689
Li	      4.34101      4.14741      4.20000         0.014206     -0.007164      0.023995
Li	      8.73080      6.12938      6.39205         0.000503     -0.068222      0.019079
Li	      6.46047      4.09010      6.34052        -0.047438      0.017595     -0.027477
Li	      8.58553      6.22082     10.59801        -0.014444     -0.040004      0.011001
Li	      8.61862      8.27192      8.46305         0.004839     -0.014575     -0.047676
Sc	      6.49826      6.11488      4.19937         0.075618      0.002965     -0.016393
Sc	     10.64046      8.36240     10.60948        -0.026790      0.082186     -0.004187
Sc	      2.23660      4.25903      6.36911         0.057892      0.016139      0.006207
Sc	      6.62105      6.17146      8.45691        -0.006843     -0.012659      0.005772
Mn	      4.29432      2.19973      2.11589         0.022310     -0.028776     -0.009712
Cr	      6.44766      2.11387      4.25080        -0.021606     -0.031694     -0.011518
Cr	     10.64764      6.19072      8.46749        -0.015074      0.010118     -0.028562
Fe	      8.46740      2.21121      6.41415         0.052828     -0.252223      0.030276
Fe	      4.28705      6.17902      6.42807         0.109166      0.115743     -0.100431
O	      2.00726      2.05166      2.10698        -0.049491      0.018933      0.034390
O	      4.28845      4.13991      2.08563         0.009716     -0.003337      0.015508
O	      4.34516      2.09352      4.09406         0.045211      0.019140      0.000020
O	      6.45664      4.09811      4.24394        -0.010920      0.050734     -0.045464
O	      6.46962      2.05054      6.37745        -0.128289     -0.022312      0.023147
O	      8.57873      4.07598      6.38096        -0.030149      0.207766     -0.007553
O	      2.01161      4.06422      4.36288         0.019104      0.058717     -0.032717
O	      4.34173      6.24952      4.15415        -0.012117      0.015838      0.048975
O	      4.24693      4.26954      6.39229         0.026833     -0.177876     -0.048040
O	      6.38269      6.27627      6.33507         0.008385      0.023107     -0.008785
O	      6.35999      4.09119      8.58261        -0.009913     -0.074588      0.011471
O	      8.65387      6.20770      8.45790         0.020179     -0.012934      0.020032
O	      2.31001      6.29748      6.35675        -0.079460      0.047838      0.027354
O	      4.29254      8.32051      6.40843         0.020781      0.006914      0.033880
O	      4.41807      6.45368      8.37551         0.012946      0.028596      0.095898
O	      6.52585      8.30564      8.54236         0.024076      0.012507      0.003415
O	      6.45304      6.25150     10.53734         0.001109      0.051710      0.018008
O	      8.51823      8.30443     10.72650         0.017981     -0.014711     -0.055451
