# total energy = -239.83366523 eV
 
CRYSTAL
PRIMVEC
0.011557 6.233808 6.713296 
6.218741 0.012984 6.711268 
4.155544 4.164380 -0.003042 
PRIMCOORD
36 1
Li	      4.10346      4.23948      0.22540        -0.000617     -0.025319     -0.036831
Li	      2.08666      2.03709      0.09439        -0.002464      0.013628      0.031121
Li	      1.98160      0.04304      2.17137         0.025836     -0.010786     -0.026226
Li	      6.23738      8.37868     11.03513         0.013675      0.027411     -0.090283
Li	      2.11456      4.15682      2.21080        -0.021599     -0.003916     -0.005699
Li	      2.00324      2.13740      4.27957         0.028753     -0.021980      0.027988
Li	      8.38372      6.17563      6.92326        -0.007554     -0.011314     -0.013206
Li	      6.30171      4.11094     10.95922         0.007713      0.009378     -0.006000
Li	      4.09183      6.26733      6.84561        -0.016691      0.003348      0.037984
Sc	      8.32001      4.16206      4.54655        -0.043099     -0.001623      0.141403
Sc	      6.21868      4.11876      6.67404         0.069142     -0.044064     -0.066842
Sc	      2.11053      6.30374      4.55473        -0.011478      0.001236      0.083179
Sc	      2.07873      4.15512      6.65757        -0.042820      0.028491     -0.079802
Mn	      6.24773      6.23193      8.94076         0.049395     -0.040272      0.026791
Cr	      3.99978      2.12218      2.21903        -0.016620      0.037474     -0.051194
Cr	      4.20424      6.19132      2.23048         0.004358      0.007696     -0.021108
Ni	      4.18370      4.14765      4.41593        -0.019203      0.002331      0.099360
Ni	      4.13620      4.17732      8.94327        -0.045382      0.061178     -0.039619
O	      2.11468      2.07580      2.24030         0.102505     -0.012861      0.009432
O	      4.14795      4.15640      2.31067         0.002984     -0.053776     -0.106805
O	      4.18472      2.10661      4.12524         0.002604     -0.108453     -0.075116
O	      6.23691      4.17684      4.58616         0.095571     -0.006780      0.001697
O	      6.23049      2.10036      6.99119        -0.013357     -0.003160      0.027974
O	      8.29907      4.20125      6.55044         0.011727      0.004039     -0.011625
O	      2.09289      4.15748      4.61404        -0.103813     -0.008663      0.011334
O	      4.15811      6.21951      4.24061         0.002764      0.122101     -0.013864
O	      4.13802      4.15379      6.78309        -0.028847      0.010139     -0.003240
O	      6.23420      6.22259      7.03224        -0.000029      0.002134      0.070808
O	      6.21667      4.21566      8.89174         0.124744      0.053469      0.016698
O	      8.26073      6.26506      9.00707        -0.058041     -0.110439     -0.011810
O	      2.08766      6.21193      6.59937        -0.003860      0.008352      0.014310
O	      4.17467      8.33501      7.07670        -0.005372     -0.019371      0.102007
O	      4.28043      6.29938      8.98391         0.008598      0.068574     -0.012496
O	      6.17859      8.17787      8.90016        -0.120244      0.014670      0.011736
O	      6.25407      6.23661     10.86563         0.014383     -0.000413     -0.082348
O	      8.31315      8.35670     11.01410        -0.003661      0.007540      0.040294
