# total energy = -240.39699244 eV
 
CRYSTAL
PRIMVEC
0.074805 6.484741 6.357439 
6.273414 0.086643 6.346550 
4.243035 4.377192 -0.003917 
PRIMCOORD
36 1
Li	      4.20795      2.15937      2.25103        -0.033709     -0.019841     -0.041824
Li	      4.12229      0.24240      4.16887         0.009602      0.002254     -0.011942
Li	      2.12601      2.37411      4.28224         0.017643     -0.065876     -0.001161
Li	      4.15366      4.31233      4.30638         0.069080      0.040461      0.000655
Li	      4.15702      2.33965      6.19137         0.011558      0.063561      0.050611
Li	      4.51147      8.51357      4.28502        -0.025105      0.007932      0.016588
Li	      2.28511      6.31793      4.24116        -0.025776      0.020462     -0.010190
Li	      2.10564      4.36710      6.11015         0.019521      0.038745      0.182615
Li	      4.31392      6.46478      6.21634        -0.000541     -0.059598     -0.044545
Sc	      6.30495      6.54698     12.61896        -0.050855      0.085606     -0.014744
Sc	      2.26172      8.60588      6.27844        -0.080115      0.032501      0.030149
Sc	      8.46775      8.78476      8.48465        -0.003398     -0.029257     -0.018763
Sc	      6.33137      6.64052      8.44803         0.079702      0.045979     -0.006721
Mn	      4.25743      6.53583      2.26103        -0.009949     -0.009240     -0.269296
Mn	      6.31559      4.46031      6.25728         0.047773     -0.118123      0.050171
Cr	      6.32448      4.37119      2.15602         0.011417     -0.014872     -0.124172
Co	      6.22696      2.26104      4.23458        -0.206822      0.028390     -0.163332
Cu	      2.15711      4.34571      2.26571         0.027973     -0.010567     -0.175678
O	      2.17752      4.33799      4.15179         0.017523     -0.007454      0.162831
O	      1.95791      2.00298      2.14131         0.007759     -0.148301      0.048214
O	      4.27808      4.60567      2.08282         0.040053     -0.030646      0.077013
O	      4.38210      2.23510      4.21913         0.190058      0.020002      0.006750
O	      6.33392      4.20770      4.14381        -0.058392     -0.185863     -0.015385
O	      6.30115      2.32944      6.50653         0.050013      0.037714      0.123548
O	      8.33388      4.35426      6.50334         0.017451     -0.010955     -0.036016
O	      4.26803      6.55198      4.06964         0.033436     -0.019608      0.137441
O	      4.41901      4.43529      6.38595        -0.032147     -0.002321      0.014881
O	      6.37930      6.41522      6.40336        -0.024080     -0.012842     -0.026629
O	      6.33179      4.30879      8.55068        -0.088280      0.024104      0.123132
O	      8.53265      6.69007      8.47943         0.016977      0.217205      0.085785
O	      2.11503      6.54691      6.46963         0.004100     -0.001489     -0.049227
O	      4.24876      8.82937      6.33224         0.016093     -0.043442     -0.092735
O	      4.22975      6.50470      8.49417         0.031971     -0.007615      0.020734
O	      6.38859      8.74457      8.37718         0.032059     -0.008057     -0.022005
O	      6.32614      6.74430     10.58119        -0.019588      0.151079     -0.005383
O	      8.26537      8.73990     10.60325        -0.093003     -0.010028     -0.001370
