# total energy = -241.22543282 eV
 
CRYSTAL
PRIMVEC
0.004662 6.220365 6.494005 
6.404315 -0.012709 6.511132 
4.260573 4.149527 0.000470 
PRIMCOORD
36 1
Li	     10.60396      4.13147      6.46134         0.057503     -0.039110      0.014347
Li	      6.46949     10.31238      8.72679        -0.078135      0.028271     -0.039240
Li	      4.46324      8.11165      8.72683        -0.055079      0.181058      0.009300
Li	      4.31844      6.33238     10.70670        -0.007840     -0.021290      0.143059
Li	      2.16966      2.04963      4.25983        -0.047718      0.004597      0.035450
Li	      4.38986      1.98015      6.44123        -0.032347      0.021563      0.007273
Li	      2.07623      6.19230      4.37929         0.035549     -0.012368      0.111645
Li	      6.27388      8.30203      6.66562         0.021021      0.019708      0.035856
Li	      6.21060      6.34264      8.71085         0.124156     -0.096875     -0.076063
Sc	      2.21237      8.20344      6.46563        -0.012225     -0.325373      0.034720
Sc	      4.18534      4.07463      4.36825        -0.082182      0.099804      0.061627
Sc	      6.45455      4.27273      6.39984         0.051026      0.380517      0.117997
Sc	      8.38716      8.30834      8.72521         0.021777     -0.313522     -0.110236
Mn	      6.41384      2.05434      8.63545         0.019834      0.047179     -0.045920
Mn	      0.06851      4.21907      4.35194         0.059652     -0.020339      0.061330
Cr	      8.53944      4.17604      8.63905        -0.083063      0.002977     -0.037074
Co	      4.28384      6.24710      6.65085        -0.054988      0.084694      0.323604
Ni	      6.33022      8.19722     10.82251         0.037458      0.013102      0.088804
O	      1.95179      2.15726      2.09626        -0.010071     -0.075931      0.103899
O	      4.15026      4.30731      2.21704         0.066312     -0.042103      0.001832
O	      4.27338      2.09707      4.38521        -0.063617     -0.100746     -0.083333
O	      6.28650      4.07741      4.40763         0.047516      0.043730     -0.220919
O	      6.46843      2.05361      6.61750        -0.099493     -0.030736      0.038426
O	      8.51270      4.12531      6.63818         0.064962      0.056292     -0.089609
O	      2.06691      4.17291      4.12938        -0.036331     -0.000218      0.008038
O	      4.27853      6.34436      4.07707         0.002391     -0.066122      0.136985
O	      4.30655      4.25151      6.52041        -0.039737      0.212550      0.000725
O	      6.17099      6.26031      6.49202         0.550139     -0.111779      0.184719
O	      6.45554      4.04013      8.59007        -0.017800     -0.097044      0.075732
O	      8.73463      6.19069      8.59026         0.049494      0.030819     -0.003888
O	      2.39868      6.19129      6.47750        -0.553298      0.067721      0.175537
O	      4.26820      8.18827      6.52005         0.068861     -0.221283     -0.005184
O	      4.26096      6.16963      8.65745         0.025318      0.214300     -0.783702
O	      6.43279      8.25880      8.79195        -0.035957     -0.026123     -0.014551
O	      6.44411      6.11080     10.89458        -0.060720      0.001652     -0.085927
O	      8.61937      8.29104     10.84893         0.067630      0.090428     -0.175259
