# total energy = -243.33481388 eV
 
CRYSTAL
PRIMVEC
-0.022055 6.321130 6.321479 
6.501466 -0.023099 6.322961 
4.322122 4.203273 -0.003571 
PRIMCOORD
36 1
Li	     10.73976      4.31247      6.38989        -0.046641     -0.001328     -0.019914
Li	      8.48684      2.09247      6.40620        -0.032755     -0.028640      0.007826
Li	      2.12908      0.03907      2.11059         0.057364      0.024411     -0.032564
Li	      6.46814      2.17352      4.23211         0.003489      0.014601     -0.016227
Li	      6.55565      2.12466      8.29874        -0.025666      0.065276      0.043781
Li	      8.62906      4.12122      8.32756        -0.052134      0.025373     -0.001273
Li	      4.47621      4.17837      4.12390         0.042637      0.060757     -0.005842
Li	      6.56397      4.16284      6.34706         0.033126      0.050992      0.010692
Li	      6.45768      6.20543      8.41500        -0.014627     -0.047769     -0.009650
Sc	      8.60799      4.12971      4.22510         0.040211      0.046246      0.017758
Sc	      4.52654      2.10169      6.37057         0.056154     -0.079765      0.052401
Sc	      8.58091      6.30110     10.46036        -0.099764     -0.014440     -0.115717
Sc	      6.50184      8.44089      6.39939        -0.052062      0.041739      0.070804
Mn	      2.14811      2.08872      4.17995         0.033420      0.031162     -0.003005
Mn	     10.76830      8.36838     10.52505         0.060106     -0.021757     -0.046054
Cr	      4.32997      2.20623      2.11907         0.093317     -0.155065     -0.031103
Co	      4.30827      6.31292      6.32972        -0.051609      0.017316      0.071909
Co	      4.38375      4.21431      8.42951        -0.028092     -0.078466      0.046840
O	      2.39657      2.09329      2.22239         0.075067     -0.008318      0.029387
O	      4.37761      3.98970      2.07144         0.012412      0.021167     -0.004133
O	      4.39898      2.08003      4.15259        -0.015304      0.033061     -0.076691
O	      6.54167      4.36930      4.17681        -0.014359      0.025764     -0.011364
O	      6.46538      2.10210      6.35271        -0.083548      0.011463     -0.007453
O	      8.65162      4.27027      6.25331         0.008184      0.053465     -0.070152
O	      2.14700      4.14099      4.24935        -0.008592     -0.062936      0.048393
O	      4.24348      6.41384      4.34501        -0.015698     -0.028656      0.102667
O	      4.27615      4.30720      6.35811         0.007674      0.002479     -0.060541
O	      6.35925      6.32728      6.19642        -0.044984     -0.004862     -0.097435
O	      6.39752      4.13515      8.59887         0.181367      0.091775      0.123805
O	      8.61090      6.31380      8.41549        -0.017771     -0.074132      0.015547
O	      2.33689      6.30027      6.27687         0.103491     -0.051048     -0.008494
O	      4.33215      8.27807      6.34954         0.069809     -0.087935      0.072873
O	      4.33164      6.35521      8.32004        -0.045076      0.195401     -0.118694
O	      6.30102      8.36072      8.43052        -0.250983      0.011863     -0.102333
O	      6.48006      6.09643     10.57192         0.000406     -0.053914      0.058726
O	      8.52712      8.38147     10.51072         0.021430     -0.025282      0.065230
