# total energy = -238.07441613 eV
 
CRYSTAL
PRIMVEC
0.024838 6.389671 6.313422 
6.319758 -0.033447 6.371872 
4.204015 4.289937 -0.012729 
PRIMCOORD
36 1
Li	      2.08432      2.08134      0.11400         0.025040     -0.048578      0.049848
Li	      2.16553      6.39127      8.22834         0.008122     -0.010430      0.023183
Li	     10.45775      6.42040      8.46931         0.010644      0.017818      0.018358
Li	      2.13423      4.26994      2.10348        -0.074595     -0.090990      0.021461
Li	      8.40244      6.41905      6.54916        -0.027764      0.042075     -0.023279
Li	      2.20513      6.36376      4.20127        -0.012917      0.008979     -0.007742
Li	      2.16081      4.44391      6.31731        -0.020538      0.026353      0.000886
Li	      4.02736      6.35091      6.26392         0.015559     -0.027078     -0.005114
Li	      6.43132      6.35580      8.42643        -0.010232      0.010388     -0.007419
Sc	      0.08777      0.06432      0.03913         0.084646     -0.060316      0.061032
Sc	      4.22548      8.36907      8.25965         0.048269     -0.045876      0.065358
Sc	      6.40393      8.50081     10.54924        -0.020690      0.092505     -0.069701
Sc	      6.24017      6.44952      4.19500        -0.095152     -0.061848      0.072948
Mn	      4.15146      4.28096      4.14558        -0.079246     -0.087486      0.061264
Mn	      4.24770      4.19945      8.43519        -0.050116      0.068124     -0.193285
Cr	      6.38099      4.30187      6.43669        -0.145083      0.187569     -0.088328
Cu	      6.35786      4.28883     10.59672         0.160827     -0.110774      0.014618
Ni	      8.43992     10.64837     10.54525        -0.085215      0.150120     -0.011510
O	      8.43507      6.63404      8.49091        -0.007586      0.063506      0.022505
O	      2.19209      2.06668      2.18726         0.009470     -0.002681     -0.042146
O	      4.19989      4.17079      2.09570        -0.066647     -0.015096      0.033978
O	      4.22470      2.24816      4.14726         0.020044     -0.034166     -0.005821
O	      6.26561      4.26421      4.42170         0.106132     -0.045672     -0.055871
O	      6.33339      2.20521      6.32344         0.017353     -0.003987      0.047433
O	      8.26296      4.23871      6.32729         0.139216     -0.035683      0.187338
O	      2.10576      4.20852      4.23933        -0.084988      0.017040     -0.048013
O	      4.21623      6.15331      4.21209        -0.080792      0.094846     -0.047469
O	      4.39413      4.21164      6.47206        -0.011128     -0.029762      0.014358
O	      6.34920      6.13937      6.33888         0.001332     -0.122215      0.005137
O	      6.20647      4.23736      8.45459         0.033511      0.037495     -0.010799
O	      2.05866      6.42642      6.27895        -0.058990      0.026965     -0.033942
O	      4.23193      8.57536      6.22917        -0.031335      0.045408      0.079556
O	      4.21718      6.29194      8.50095         0.048168     -0.027857     -0.137328
O	      6.44752      8.53572      8.43703         0.091213      0.004889      0.087195
O	      6.23391      6.50023     10.63404         0.158821      0.072934     -0.022445
O	      8.49920      8.60181     10.38772        -0.015351     -0.106521     -0.056242
