# total energy = -88.62784791 eV
 
CRYSTAL
PRIMVEC
1.923174 3.972202 1.923002 
1.960368 -4.009806 1.960133 
3.901723 -0.000057 -3.901342 
PRIMCOORD
16 1
Li	      3.74597     -3.80632     -0.02131        -0.744339     -0.644002      0.170626
Li	      5.52679     -0.01783     -1.83634         1.139435     -0.208555     -0.836961
Li	      1.88471     -1.90088     -0.02176        -0.811429     -0.074774     -0.178682
Li	      5.51420      1.87010      0.00002         0.215130      0.830683     -0.091788
Mn	      5.55249     -3.80836     -1.82671         1.806926     -4.454098     -3.374004
Mn	      1.85062      1.88752     -0.02217        -2.523130      4.390017      0.216965
Ni	      3.68315      1.88767     -1.85501         1.296421      2.812766     -2.605670
Ni	      3.71464     -0.01695     -0.02412         0.027701     -0.886875      1.099023
O	      5.63292     -0.02852     -0.02384         1.150373      0.369905      0.789035
O	      3.57959      1.78507     -0.01294         3.431155      2.630436      1.442179
O	      3.71382     -0.00557     -1.94246        -0.699802     -1.299134     -0.910403
O	      3.69232     -0.17282      1.90541         0.331110      0.570354      2.023359
O	      3.70319     -1.81939      0.11051         0.383854     -3.100600     -1.811816
O	      1.84391      2.01952      1.74888        -0.809319      0.889966      3.151781
O	      1.78431      0.13864     -0.00185        -2.169176     -2.526763     -0.199444
O	      1.94143     -2.05283      1.84616        -2.024910      0.700676      1.115801
