# total energy = -242.12945337 eV
 
CRYSTAL
PRIMVEC
0.025441 6.391249 6.460244 
6.425287 0.008775 6.476717 
4.255141 4.243223 0.034419 
PRIMCOORD
36 1
Li	      8.45463      2.24312      6.49687        -0.006118      0.046355     -0.018449
Li	      4.17488      2.23059      2.31344         0.010836      0.051776      0.012683
Li	      4.22866      0.23299      4.45848         0.015076      0.013314      0.014322
Li	      6.24699      2.14861      4.46255        -0.024159      0.006161      0.004023
Li	      0.09038      2.05139      2.00133         0.006648     -0.047181     -0.046656
Li	      8.63628      4.20771      8.51611         0.020367     -0.023121     -0.040115
Li	      4.36047      4.16077      4.48688         0.027770     -0.015844      0.012741
Li	      4.39830      2.02776      6.31023         0.019081     -0.016118     -0.015698
Li	      6.43193      4.21124      6.37336        -0.001292     -0.018721     -0.008342
Sc	      6.38741      4.33788      2.28595        -0.141493      0.058295      0.007767
Sc	      4.23535      8.45681      4.35013         0.057226      0.142684      0.080866
Sc	      2.19367      4.23517      6.45396        -0.005578     -0.007825      0.098964
Sc	      4.35053      4.18882      8.57645         0.014750      0.075228     -0.111431
Mn	     10.59458      4.34071      6.53482        -0.105453     -0.010713     -0.110990
Mn	      2.14801      6.35410      4.31043         0.581516     -0.026381     -0.056855
Cr	      2.22294      2.10726      4.29795        -0.015169      0.043869      0.097204
Fe	      6.40774      6.37690      8.64354        -0.086207      0.073608      0.015423
Ni	      4.28910      6.38366      6.48783        -0.032003      0.047793      0.051653
O	      2.12426      2.09771      2.32253        -0.038404      0.060675     -0.072702
O	      4.32702      4.25520      1.91708         0.034975     -0.017955      0.092268
O	      4.14240      2.19145      4.32909         0.066601      0.020367     -0.010649
O	      6.41010      4.36747      4.30573        -0.046584     -0.129793      0.076254
O	      6.41582      1.94398      6.46361         0.043956      0.083617     -0.017157
O	      8.77038      4.23516      6.47420        -0.077269     -0.012064     -0.007392
O	      2.11655      4.29460      4.36125         0.002208      0.182822      0.028898
O	      4.24676      6.39179      4.43564         0.833190      0.090078     -0.095273
O	      4.25777      4.29793      6.53331        -0.061517     -0.060792     -0.007071
O	      6.36634      6.40880      6.52102         0.045076     -0.026728      0.027046
O	      6.40113      4.39094      8.68297        -0.054949     -0.094975      0.008206
O	      8.43014      6.37834      8.79583        -0.028415      0.069268     -0.504746
O	      2.12460      6.37330      6.40237        -0.123476     -0.059534      0.422206
O	      4.32836      8.61478      6.42590         0.044182     -0.027767     -0.031433
O	      4.32927      6.34970      8.57539         0.110186     -0.022566      0.065314
O	      6.46642      8.48106      8.60000         0.057721     -0.094047     -0.021206
O	      6.53159      6.37300     10.80146        -1.160721     -0.174206      0.096494
O	      8.60584      8.29919     10.74482         0.017439     -0.179578     -0.036166
