# total energy = -247.11508772 eV
 
CRYSTAL
PRIMVEC
0.010602 6.434730 6.340412 
6.366969 0.013665 6.337316 
4.252428 4.295636 0.001177 
PRIMCOORD
36 1
Li	      0.02185      6.37822      6.27653         0.006215      0.009181     -0.023182
Li	      4.25086      8.60829      8.37846         0.023571      0.009780     -0.030198
Li	      4.22749      0.08097      4.22119        -0.000080      0.041748     -0.010290
Li	      6.33349      2.15351      4.24734        -0.032146     -0.024666     -0.023269
Li	      4.27377      4.29150      4.28240         0.009863      0.003344      0.026995
Li	      6.32430      4.28127      6.28369        -0.010334      0.008145     -0.017084
Li	      4.28029      8.61499      4.30518         0.016364      0.017304     -0.009667
Li	      6.29376      8.59610      6.35195        -0.049904     -0.027123      0.031000
Li	      4.22492      6.48709      6.33236         0.017206     -0.007294      0.009244
Sc	      8.64862      8.65514     12.58098        -0.050794      0.061504     -0.020274
Sc	      6.34715     10.63194      8.47435        -0.016103     -0.024726     -0.038138
Sc	      6.37667      6.41739      4.31355         0.019971      0.026066      0.000265
Sc	      6.27411      6.46867      8.46594        -0.104486      0.023075      0.000600
Mn	      6.36117      2.17394      8.45162         0.074883     -0.004461     -0.020351
Mn	      2.18378      4.29331      2.10352         0.001056     -0.031701      0.016431
Cr	      8.50070      8.57935      8.45573         0.002393      0.020912      0.010412
Fe	      4.32063      2.23129      6.22582         0.003158     -0.122224      0.143195
Fe	      2.07815      6.39840      4.34374         0.133215     -0.085090     -0.095399
O	      2.15330      2.12089      2.10598         0.035616      0.016965      0.003489
O	      4.21115      4.41278      2.10784        -0.005048      0.006113     -0.014103
O	      4.22142      2.14076      4.32238         0.005243      0.013565     -0.133033
O	      6.37661      4.38116      4.14712        -0.001312      0.000314      0.081715
O	      6.34277      2.17762      6.50678         0.044761      0.004615     -0.002246
O	      8.51544      4.35205      6.51471         0.006283      0.033627     -0.023390
O	      2.14112      4.32663      4.04000         0.020256      0.010706      0.010803
O	      4.21112      6.43601      4.06926        -0.011454      0.005321      0.001567
O	      4.26661      4.17927      6.46540        -0.015316      0.075803      0.003602
O	      6.46746      6.45502      6.34565        -0.018538     -0.025466      0.042339
O	      6.35627      4.26941      8.45459         0.018272     -0.053853      0.006985
O	      8.45247      6.51173      8.46510         0.022482      0.024356     -0.018266
O	      2.15699      6.48631      6.29539        -0.024655     -0.004189      0.086872
O	      4.22614      8.57704      6.35179         0.016957      0.022185     -0.010109
O	      4.23606      6.28812      8.45473        -0.015777      0.020918      0.009032
O	      6.45389      8.57674      8.45591        -0.008792     -0.033957      0.014142
O	      6.49664      6.44242     10.49990        -0.089320     -0.021610      0.050581
O	      8.50265      8.48614     10.52711        -0.023707      0.010814     -0.060271
