# total energy = -237.56120893 eV
 
CRYSTAL
PRIMVEC
0.000225 6.302602 6.413776 
6.486821 -0.023453 6.438068 
4.294562 4.187655 0.014492 
PRIMCOORD
36 1
Li	      4.34558     10.26949      6.49712         0.012488     -0.023980      0.043183
Li	      2.38464      8.30250      6.34821         0.056491      0.013108      0.036105
Li	      4.27008      8.43012      8.39461        -0.004379      0.003064     -0.086407
Li	      2.18077      2.24606      4.21333         0.021683      0.036290     -0.036058
Li	      4.15547      4.17459      4.31989        -0.019034     -0.029753     -0.023511
Li	      4.24612      8.42367      4.41230         0.016479     -0.017706      0.045735
Li	      2.20056      6.17841      4.51578         0.001650     -0.007745     -0.008078
Li	      2.09136      4.23602      6.27008        -0.075374     -0.023516     -0.097748
Li	      8.58601      8.39143      8.61513         0.003827     -0.018901     -0.013798
Sc	      2.15164      6.29414      8.44516        -0.101152      0.042086     -0.055647
Sc	      6.56227      8.30608     10.72861        -0.003873     -0.031000     -0.003647
Sc	      4.28645      6.28689      2.33202         0.019412     -0.005445      0.151216
Sc	      6.41136      4.25183      6.40505        -0.042321      0.049862      0.025131
Mn	      4.33219      2.11695      6.42989        -0.146446      0.199427      0.010642
Mn	      6.45335      6.30573      8.58350         0.020084      0.005729      0.001297
Cr	      4.33255      6.27016     10.69429        -0.026768     -0.016117     -0.042945
Ni	      2.19945      4.14886      2.22433         0.075326     -0.016442     -0.038823
Ni	      4.21370      6.41441      6.31368         0.125127     -0.165699      0.026117
O	      2.15698      4.22791      4.20408         0.026210     -0.007013      0.027540
O	      4.35586      8.34592      6.40193        -0.015891      0.038329      0.023853
O	      2.06809      2.09009      2.09959        -0.054390     -0.126205      0.017561
O	      4.33282      4.21744      2.16180         0.109336      0.011679     -0.002740
O	      4.34557      2.01388      4.49854         0.060442     -0.014993      0.096193
O	      6.59728      4.14160      4.30605         0.031213     -0.055255      0.022375
O	      6.26789      2.13083      6.45432         0.019137      0.041410     -0.033050
O	      8.59211      4.32849      6.37041        -0.035424      0.068740     -0.047912
O	      4.30891      6.27401      4.32132        -0.012702     -0.007563     -0.108504
O	      4.37172      4.06976      6.41181         0.034102     -0.080383     -0.010658
O	      6.60830      6.31765      6.58150         0.039675     -0.029919      0.070399
O	      6.53562      4.26854      8.50179        -0.075197      0.105572     -0.057260
O	      8.65933      6.23885      8.39739        -0.035190      0.083960     -0.136364
O	      2.21128      6.27025      6.45127        -0.060499     -0.004029      0.101565
O	      4.27642      6.28316      8.62842         0.017185     -0.020274      0.083106
O	      6.45544      8.29341      8.66923         0.027545     -0.065979      0.067872
O	      6.35501      6.26019     10.54013        -0.029291      0.033870     -0.057532
O	      8.55971      8.46751     10.77136         0.020518      0.034789      0.010794
