# total energy = -246.25006654 eV
 
CRYSTAL
PRIMVEC
0.013974 6.442880 6.377655 
6.305258 0.030342 6.360766 
4.208651 4.289456 0.015527 
PRIMCOORD
36 1
Li	      8.36378      2.22834      6.37480        -0.012376      0.053586     -0.023738
Li	      2.20473      6.39163      8.52488        -0.046294     -0.040478     -0.042383
Li	      6.28168      2.22061      4.26523        -0.040757      0.007485      0.082809
Li	      8.39678      4.35598      8.50834         0.000297      0.016894      0.006762
Li	      6.35900      6.41048      4.26977         0.009744     -0.026948     -0.011313
Li	      4.16258      2.23011      6.36867         0.010925      0.018691      0.011772
Li	      4.17884      6.41479      6.40512        -0.040876     -0.023878     -0.026906
Li	      8.32335      8.64871      8.56681         0.013586     -0.010501      0.054955
Li	      6.38885      6.52203      8.52179         0.057107      0.018129      0.028470
Sc	      6.24952      0.13637      6.31544         0.060503     -0.002031      0.003898
Sc	      4.13614      2.03079      2.18088         0.011661      0.052690     -0.015169
Sc	      0.05088      2.14615      2.14459        -0.010818      0.057484     -0.072628
Sc	      6.32099      4.46059      6.38914        -0.017939     -0.002393      0.100382
Mn	      6.32188      4.32670     10.56930        -0.038018      0.007307     -0.017059
Mn	      6.35337      8.53169      6.41315         0.034416      0.025807      0.124144
Cr	      4.22309      4.25937      4.23118        -0.071692     -0.027564      0.000777
Cr	      8.43696      6.47849     10.59198        -0.105363      0.092429      0.120965
Cu	      8.37095     10.73781     10.58944        -0.005449      0.013784      0.082719
O	      2.11828      2.15250      2.07438         0.010258     -0.019813     -0.019215
O	      4.19130      4.28290      2.14090         0.021283     -0.020027     -0.006949
O	      4.22214      2.29077      4.18374        -0.010073      0.082568      0.021597
O	      6.20061      4.30304      4.34620         0.012226     -0.008902     -0.073838
O	      6.32148      2.19781      6.42360        -0.036633      0.005049     -0.031038
O	      8.38516      4.32668      6.20715        -0.012393      0.008602      0.061563
O	      2.07178      4.35754      4.35610         0.023389     -0.037193      0.031206
O	      4.14988      6.31304      4.26062         0.056646      0.003797      0.001765
O	      4.10865      4.29517      6.26101        -0.054661     -0.001097     -0.027718
O	      6.30606      6.55223      6.38103        -0.019769      0.071543     -0.008993
O	      6.35281      4.28514      8.56854         0.005402     -0.002260     -0.007079
O	      8.47801      6.44080      8.63251         0.024990      0.005953     -0.066082
O	      2.08625      6.22895      6.28683        -0.001743     -0.080245     -0.014987
O	      4.36082      8.60541      6.29352         0.041489     -0.026563      0.006926
O	      4.18672      6.45662      8.65759         0.028461     -0.119020     -0.106056
O	      6.29511      8.59011      8.27105        -0.001120     -0.003761     -0.138372
O	      6.40495      6.52405     10.64906         0.116598     -0.000415     -0.024451
O	      8.63073      8.46786     10.68289        -0.013006     -0.088709     -0.006737
