# total energy = -244.44145107 eV
 
CRYSTAL
PRIMVEC
0.001529 6.404429 6.304867 
6.355487 -0.029202 6.335573 
4.234439 4.287940 -0.016646 
PRIMCOORD
36 1
Li	      8.36631      2.10953      6.31180        -0.109664      0.026248      0.002218
Li	      6.27573     10.58025      8.41789         0.007581     -0.029403      0.003750
Li	      4.32740      8.62759      8.36079         0.022556      0.010773      0.029204
Li	      6.41199      8.57188     10.53218        -0.065650     -0.026702      0.004888
Li	      6.35277      2.14491      8.40400         0.000584     -0.038316     -0.013619
Li	      6.31141      4.19887      6.38282        -0.022615      0.073775      0.030812
Li	     10.44367      8.57048     10.45961         0.036943      0.022984     -0.023641
Li	      2.22940      6.47219      4.21586         0.060585     -0.023380     -0.079061
Li	      8.49631      8.52020      8.47587         0.001705      0.006258     -0.052830
Sc	      2.09457      4.19306      2.06137         0.031266      0.138893     -0.019632
Sc	      6.34612      6.35081      4.14179         0.032013      0.032702      0.148894
Sc	      4.07445      6.49255      6.37063         0.019281      0.008835      0.078265
Sc	      6.37953      6.45842      8.44716        -0.040890     -0.043289     -0.061679
Mn	      0.07175      6.37557      6.30395         0.101832      0.038764     -0.014613
Mn	      8.44505     10.51783     10.48342         0.005152      0.258488     -0.024095
Mn	      4.28702      2.14519      6.36095        -0.100585     -0.067150     -0.001640
Cr	      4.27968      4.25065      4.18562         0.036317     -0.057902      0.012620
Cu	      2.12713      4.31956      6.33654         0.010838      0.002152     -0.036889
O	      8.43421      8.71678     10.50007        -0.051685     -0.202281     -0.004952
O	      2.11501      2.19432      2.17163        -0.000891     -0.089423     -0.129570
O	      4.22413      4.24436      2.19089         0.065500     -0.018597      0.061139
O	      4.22540      2.13890      4.39395         0.077128      0.074143     -0.103754
O	      6.43893      4.26737      4.23694        -0.068523     -0.094002     -0.029151
O	      6.21396      1.88928      6.35248         0.125482      0.105352     -0.005084
O	      8.58864      4.18959      6.17999        -0.081263     -0.160468     -0.003073
O	      2.26961      4.22625      4.20272         0.002276      0.036846     -0.083514
O	      4.26602      6.28692      4.30038        -0.033907      0.036072     -0.011094
O	      4.21087      4.32497      6.21624         0.030930      0.092687      0.064494
O	      6.40684      6.30955      6.31376         0.015495     -0.171508      0.028278
O	      6.44313      4.32080      8.41733        -0.129168     -0.057118      0.028926
O	      8.46646      6.36221      8.29051         0.048980      0.046207      0.137362
O	      2.06437      6.56645      6.23632         0.049391      0.170600     -0.050253
O	      4.35052      8.65089      6.26204        -0.082741     -0.099836      0.002693
O	      4.23959      6.41857      8.53251        -0.054986     -0.021154     -0.022527
O	      6.37401      8.50184      8.28235         0.022354      0.026309      0.195520
O	      6.11447      6.38126     10.49735         0.038378     -0.007563     -0.058392
