# total energy = -244.94144889 eV
 
CRYSTAL
PRIMVEC
-0.001604 6.371764 6.298275 
6.498694 -0.032204 6.326332 
4.322689 4.257208 -0.011548 
PRIMCOORD
36 1
Li	      8.59387      2.12697      6.41403        -0.034448      0.007499      0.027055
Li	      6.58696      2.29968      8.49720         0.047666      0.007974      0.050928
Li	      8.50500      4.17540      8.42659         0.027813      0.017958     -0.037400
Li	      6.33587      6.53898      4.23314         0.020441      0.084346     -0.028567
Li	      4.40197      2.15017      6.32362        -0.000619      0.002596      0.050779
Li	      6.41792      4.14156      6.43496        -0.056194     -0.020527     -0.003941
Li	      0.18005      4.11549      4.10976         0.111593      0.047523      0.003878
Li	      2.22604      4.20112      6.17189         0.035302     -0.001376     -0.030355
Li	      4.46423      4.12130      8.38722         0.026838      0.013204     -0.022736
Sc	      4.33214      4.29846      0.06260        -0.052291     -0.012103      0.014513
Sc	      4.18416      2.09785      2.08589        -0.068927      0.009181     -0.022354
Sc	      8.55050      4.14567      4.32544        -0.011576     -0.047852      0.057160
Sc	      6.58325      6.22732      8.28782         0.030491      0.005833     -0.054223
Mn	      6.44816      2.07889      4.22717         0.031922     -0.061252      0.098801
Mn	      4.31754      4.31414      4.21050        -0.038707      0.005271      0.005336
Mn	      2.24445      6.39766      4.13431         0.002167     -0.017134      0.002511
Cr	      4.35559      6.39192      6.25226         0.017151      0.029172     -0.024824
Ni	      2.17217      6.33394      8.38466         0.025820     -0.011281     -0.093302
O	      2.19803      2.00412      2.17371         0.058579      0.109070      0.003030
O	      4.40886      4.21037      2.16263        -0.016690     -0.066375      0.002255
O	      4.47556      2.03594      4.21396         0.019509     -0.052409      0.006093
O	      6.43281      4.02441      4.19102         0.036220     -0.104862     -0.013329
O	      6.48204      2.06348      6.14766        -0.019705     -0.036877     -0.046902
O	      8.77692      4.20270      6.27816        -0.018630     -0.036984     -0.015726
O	      2.34548      4.42405      4.15007        -0.026952      0.021924     -0.019601
O	      4.36708      6.45014      4.28018         0.023687      0.048517     -0.026908
O	      4.32151      4.37846      6.11236         0.010706      0.030770      0.040560
O	      6.36905      6.40351      6.29537        -0.026893      0.012357      0.003800
O	      6.48440      4.26883      8.45379         0.005910      0.049016     -0.016504
O	      8.61851      6.38262      8.53830        -0.025957      0.013515     -0.028297
O	      2.22331      6.39466      6.18282         0.004997      0.010423      0.043260
O	      4.36153      8.50945      6.32797        -0.006684     -0.027278      0.045089
O	      4.31530      6.34575      8.37006         0.031096      0.017014     -0.018692
O	      6.40558      8.47498      8.58082        -0.028135     -0.110550      0.051255
O	      6.39310      6.47030     10.53037        -0.041351      0.046579     -0.009010
O	      8.39623      8.41218     10.49748        -0.094149      0.017120      0.006369
