# total energy = -251.53099172 eV
 
CRYSTAL
PRIMVEC
-0.017415 6.474617 6.492973 
6.296702 0.004760 6.470507 
4.214269 4.317252 -0.012317 
PRIMCOORD
36 1
Li	      4.24099     10.66658      6.42816        -0.038383      0.017950     -0.017899
Li	      2.17633      8.52156      6.39398        -0.018099      0.008110      0.025067
Li	      2.17099      6.42671      8.39648        -0.009209      0.012682     -0.009986
Li	      4.26380      6.34115     10.75108        -0.051567     -0.012284      0.012301
Li	      8.38516      4.35199      8.59044         0.007244     -0.032023     -0.033563
Li	      4.09107      8.73194      4.56488        -0.073345     -0.032953      0.070483
Li	      2.02248      4.44210      6.50794         0.025794     -0.013360     -0.030334
Li	      4.05893      6.62514      6.59094         0.005122      0.035937     -0.021972
Li	      4.12894      4.46349      8.71190         0.011367      0.002039      0.012123
Sc	      4.16971      8.60840      8.47915        -0.006900      0.024299      0.060474
Sc	      6.29752      2.14134      8.58032         0.025640      0.030972      0.003568
Sc	      2.08847      2.26297      4.35771         0.021137      0.002016     -0.028983
Sc	      2.07435      6.47528      4.46341         0.007722     -0.008663      0.005402
Mn	      6.28580      8.57034     10.78021        -0.047824     -0.005967      0.049846
Mn	      4.24169      4.32797      4.33527         0.018957      0.025573     -0.014283
Mn	      8.39691      6.43337      6.49393         0.025442     -0.013577     -0.050162
Mn	      6.32298      4.32375      6.47943        -0.006210     -0.012976     -0.024260
Cr	      6.28583      6.43796      8.63450        -0.009041     -0.008882     -0.036362
O	      2.07687      2.18192      2.28330         0.019616      0.014925     -0.009384
O	      4.25869      4.34863      2.34967         0.017063     -0.011489     -0.015558
O	      4.27967      2.12474      4.24676         0.017018     -0.024001      0.017723
O	      6.20959      4.39411      4.48570         0.043137      0.027775     -0.028419
O	      6.16902      2.06487      6.42601         0.050682     -0.046352     -0.010057
O	      8.25116      4.50760      6.46808         0.038599     -0.019925     -0.017968
O	      2.29233      4.31514      4.36750         0.006500      0.000725      0.022558
O	      4.24003      6.58954      4.22955        -0.029254      0.043283     -0.003508
O	      4.33327      4.11930      6.32149        -0.040326      0.024189      0.033929
O	      6.42779      6.55166      6.52534        -0.040081      0.055915      0.016403
O	      6.26814      4.35063      8.42247        -0.000294     -0.005850      0.016811
O	      8.39523      6.45022      8.68625        -0.033100     -0.003142     -0.005238
O	      2.09616      6.45003      6.42839        -0.010246     -0.003033     -0.010120
O	      4.15183      8.69413      6.53095         0.035694     -0.019181     -0.020915
O	      4.29254      6.51901      8.58032        -0.012478     -0.038341      0.026843
O	      6.28254      8.49091      8.77350         0.040825      0.017793      0.001367
O	      6.31120      6.38181     10.64160        -0.025487     -0.052494      0.033005
O	      8.17563      8.59626     10.84120         0.034282      0.020312     -0.018931
