# total energy = -90.35609983 eV
 
CRYSTAL
PRIMVEC
1.943418 4.014015 1.943244 
1.981003 -4.052014 1.980766 
3.942794 -0.000058 -3.942408 
PRIMCOORD
16 1
Li	      3.82524     -3.88687     -0.02176        -0.580189     -0.476379      0.147095
Li	      5.64375     -0.01821     -1.87520         0.865665     -0.142786     -0.613768
Li	      1.92459     -1.94110     -0.02223        -0.592283     -0.049910     -0.122219
Li	      5.63090      1.90967      0.00003         0.141047      0.598485     -0.063810
Mn	      5.66999     -3.88896     -1.86538         1.543916     -3.658689     -2.783697
Mn	      1.88979      1.92746     -0.02263        -1.716564      3.336836      0.289769
Ni	      3.76110      1.92762     -1.89427         0.990824      2.021439     -1.898468
Ni	      3.79326     -0.01731     -0.02463        -0.003451     -0.633308      0.829404
O	      5.75213     -0.02913     -0.02434         0.909715      0.374250      0.598922
O	      3.65535      1.82284     -0.01321         2.455947      1.996036      1.006301
O	      3.79242     -0.00569     -1.98357        -0.529872     -0.859507     -0.732374
O	      3.77045     -0.17648      1.94573         0.228065      0.426430      1.631963
O	      3.78156     -1.85789      0.11284         0.243137     -2.406926     -1.383133
O	      1.88292      2.06227      1.78589        -0.635271      0.806670      2.320300
O	      1.82207      0.14158     -0.00188        -1.696337     -1.746569     -0.117758
O	      1.98252     -2.09627      1.88524        -1.624349      0.413927      0.891474
