# total energy = -260.44774527 eV
 
CRYSTAL
PRIMVEC
0.047260 6.392874 6.449836 
6.488274 0.037586 6.459192 
4.350163 4.292722 0.000520 
PRIMCOORD
36 1
Li	      4.36315      4.27997      0.12372        -0.046101      0.011273      0.068291
Li	      6.47256     10.60571      8.50854        -0.004868     -0.010859      0.041436
Li	      6.30517      2.37144      8.53343         0.048817     -0.019757      0.008534
Li	      8.66775      4.35520      8.60088         0.039443      0.002482      0.003041
Li	      6.46971      4.26291      6.60465         0.019921      0.011260     -0.069302
Li	      6.57385      4.30355     10.63350         0.007178      0.023768      0.023110
Li	      2.19679      6.35615      4.38094        -0.064763     -0.005823      0.125420
Li	      2.19369      4.39321      6.47637        -0.015519      0.000715      0.009328
Li	      4.53474      4.15280      8.50044        -0.041431      0.097293     -0.010588
Sc	      2.12126      2.11870      0.14227        -0.012235      0.011357      0.018939
Sc	      8.73640     10.65290     10.75446         0.026601     -0.013651     -0.012055
Sc	      6.60579      8.55795     10.70653         0.002470     -0.031911      0.023629
Sc	      2.08407      2.24443      4.27619         0.039136      0.011199     -0.066408
Sc	      4.26606      4.39266      4.22954         0.034212     -0.016256     -0.036295
Sc	      6.63308      6.28688      8.55582         0.008628      0.021627      0.021370
Cr	      4.41031      8.57887      8.55426        -0.068904     -0.009801      0.070225
Cr	      4.39303      2.16102      6.50667         0.015409     -0.022349     -0.111719
Cr	      4.32382      6.38030      6.51869         0.058286      0.002343     -0.035092
O	      2.30532      2.17370      2.18869         0.035172      0.006300     -0.006048
O	      4.38184      4.15581      2.19846        -0.042572      0.011042     -0.012095
O	      4.33109      2.17500      4.32530        -0.002172     -0.027443     -0.031856
O	      6.53310      4.32380      4.24280         0.019439     -0.020548      0.003784
O	      6.44746      2.15822      6.41226        -0.061883      0.011243      0.024946
O	      8.71659      4.38809      6.36575        -0.022404     -0.008147      0.015160
O	      2.24889      4.25155      4.30618        -0.023806      0.021536      0.006373
O	      4.40589      6.41574      4.46211        -0.051598      0.075223      0.005908
O	      4.37847      4.26642      6.38673        -0.011672      0.020871      0.017562
O	      6.57754      6.41552      6.42086        -0.027612      0.014860      0.018739
O	      6.51042      4.32230      8.62162         0.027888     -0.000384     -0.013867
O	      8.68396      6.46000      8.44214         0.010615     -0.008885      0.011506
O	      2.35096      6.46500      6.48438        -0.016600     -0.024057      0.000502
O	      4.31053      8.41591      6.59532         0.018281     -0.023181     -0.030318
O	      4.43518      6.48673      8.55932        -0.021863      0.033239     -0.050687
O	      6.41025      8.50974      8.65546         0.008712      0.019470     -0.015618
O	      6.46750      6.48801     10.66510         0.042009     -0.062533      0.021117
O	      8.61835      8.64488     10.88154         0.073786     -0.101515     -0.036977
