# total energy = -259.97106175 eV
 
CRYSTAL
PRIMVEC
-0.017441 6.543891 6.568710 
6.341944 0.036968 6.515123 
4.237721 4.336504 0.015146 
PRIMCOORD
36 1
Li	      2.14916      2.13227      0.23258        -0.013887      0.016740      0.016204
Li	      2.16724      0.17750      2.22704         0.000643     -0.042501      0.032683
Li	      3.98366      2.22617      2.32402         0.133559     -0.035537     -0.043045
Li	      4.13927      0.15600      4.34421         0.055794     -0.042362     -0.021000
Li	      2.20779      4.16296      2.28715        -0.068896      0.034274      0.012331
Li	      2.28238      2.19625      4.20063        -0.052065      0.006288      0.087558
Li	      4.21910      4.19494      4.20989         0.027206     -0.027628     -0.003709
Li	      4.26642      2.12558      6.42584         0.003436     -0.009965      0.003581
Li	      2.14638      6.49082      4.42424        -0.046996      0.025453      0.022027
Sc	      4.16009      4.32005      0.11257         0.011855      0.021413     -0.015850
Sc	      6.21560      2.24785      4.30533         0.180974     -0.039713     -0.038613
Sc	      4.32177      6.45603      2.33804        -0.114936      0.005174     -0.006945
Sc	      6.46915      4.38541      6.43115        -0.012725     -0.031842      0.002153
Sc	      2.13501      4.37049      6.46725         0.035031      0.011962      0.101812
Sc	      6.38894      6.51822      8.77269         0.022536      0.043606      0.003736
Mn	     10.54546      8.74416     10.93507        -0.107847      0.065180     -0.023344
V	      8.46279      8.72608      8.76287        -0.065201      0.029912     -0.100490
Cr	      4.15775      6.57906      6.55096        -0.015410      0.014310      0.037647
O	      2.04276      2.17367      2.22462         0.032689      0.017112      0.036650
O	      4.19279      4.43717      2.13558        -0.030005      0.004028      0.052853
O	      4.27111      2.21374      4.34441        -0.067963     -0.045825     -0.026522
O	      6.34940      4.26803      4.43023        -0.012611      0.034246     -0.016543
O	      6.36729      2.19098      6.50197        -0.006510      0.007843      0.004549
O	      8.47732      4.39190      6.51482        -0.034537      0.002414     -0.009871
O	      1.93683      4.38082      4.45054         0.010655      0.002509     -0.063063
O	      4.17104      6.69851      4.47071        -0.013642      0.020186      0.022633
O	      4.22215      4.53149      6.62303        -0.005190      0.022610     -0.076596
O	      6.24156      6.54270      6.63299        -0.007149      0.004784     -0.080364
O	      6.33239      4.38514      8.63026         0.052326     -0.009366      0.002382
O	      8.46275      6.73375      8.66091        -0.006831     -0.054389     -0.011093
O	      2.11918      6.46061      6.55989         0.042087     -0.007151      0.008923
O	      4.22961      8.67596      6.59872        -0.006691     -0.027753      0.018015
O	      4.25319      6.43614      8.56950         0.015656      0.048674     -0.029815
O	      6.38785      8.60643      8.74995        -0.033912     -0.010071     -0.008174
O	      6.32474      6.53006     10.89845         0.032642     -0.058805     -0.014047
O	      8.56969      8.77173     10.68957         0.065915      0.004190      0.123344
