# total energy = -253.40150450 eV
 
CRYSTAL
PRIMVEC
-0.004434 6.332599 6.580280 
6.400777 0.004978 6.570902 
4.283681 4.231700 -0.013780 
PRIMCOORD
36 1
Li	      0.04020      6.29862      6.55750         0.004767     -0.004301     -0.072088
Li	      4.26068      2.15853      2.17099        -0.052912      0.020876      0.012924
Li	     10.62696      6.40421      8.80206         0.039622     -0.050869      0.015790
Li	      6.40739      6.34382      4.37441        -0.000260      0.015836      0.071394
Li	      6.38503      4.25288      6.70665         0.015660      0.000991      0.073992
Li	      8.57437      6.31330     10.83130         0.047488      0.015912     -0.058245
Li	      6.37393      8.45699      6.54366         0.002563      0.033308     -0.015858
Li	      8.55398      8.34603      8.79938        -0.058109      0.021975      0.038249
Li	      6.52710      6.35155      8.76100         0.017201      0.016432     -0.023841
Sc	      8.51739      2.16351      6.59835         0.002586      0.084525      0.010206
Sc	      6.29465      4.21377      2.15739         0.011284      0.017914     -0.033672
Sc	      4.13136      4.25175      4.38004        -0.056040     -0.016249     -0.009623
Sc	      8.49864      6.34850      6.68326        -0.031340     -0.118003     -0.068049
Sc	      0.10004      4.20852      4.28610         0.091787      0.030043      0.112870
Sc	      4.41350      6.32905      6.65185         0.017845      0.011029      0.004183
Mn	      6.43073      8.41503     10.89930        -0.083557     -0.036117     -0.032295
V	      4.26836      6.38477     10.84617        -0.006386      0.040224      0.126799
Cu	      2.13508      4.21063      2.22037         0.041462     -0.025648     -0.021893
O	      2.10267      2.15691      2.07821        -0.050707     -0.148252     -0.009333
O	      4.22346      4.21522      2.26978         0.151835      0.040230      0.032536
O	      4.22786      2.06368      4.41111        -0.104214      0.061383      0.032327
O	      6.46479      4.18581      4.26978        -0.069600     -0.067640     -0.011496
O	      6.41307      2.08407      6.29459         0.000306     -0.002976     -0.090671
O	      8.51400      4.25767      6.18364        -0.012912     -0.009571     -0.236474
O	      2.13359      4.26049      4.50847        -0.025584      0.025674      0.107993
O	      4.29026      6.32418      4.51577         0.034686      0.023259      0.023299
O	      4.30678      4.21418      6.51281         0.010883     -0.001865      0.000704
O	      6.43036      6.34969      6.66356        -0.019695      0.001806      0.024195
O	      6.53324      4.17927      8.82474        -0.144666     -0.050988     -0.054387
O	      8.60463      6.23744      8.68744         0.071976      0.146294      0.098013
O	      2.20629      6.39872      6.71305        -0.010425     -0.014115     -0.003410
O	      4.22482      8.41689      6.49850        -0.023186     -0.012746     -0.033199
O	      4.19323      6.35512      8.93878        -0.024172      0.005872     -0.025923
O	      6.40647      8.48412      8.98031         0.015105      0.000071      0.053329
O	      6.24705      6.37647     10.88600         0.142423     -0.012406     -0.025912
O	      8.60398      8.58313     10.94621         0.054287     -0.041910     -0.012434
