# total energy = -256.67938079 eV
 
CRYSTAL
PRIMVEC
-0.009227 6.437421 6.410448 
6.467533 -0.023953 6.425242 
4.304708 4.294436 -0.009033 
PRIMCOORD
36 1
Li	      6.47092      6.39301     12.64387        -0.020122     -0.017392     -0.061329
Li	      6.51355     10.71264      8.61003        -0.000345     -0.005899      0.008802
Li	      8.53569      4.22921      4.28175        -0.067367     -0.018457     -0.013773
Li	      6.49279      8.58530     10.62734        -0.015757      0.023039     -0.039528
Li	      6.49909      6.33853      4.33533         0.014047      0.025463      0.021400
Li	      6.49078      4.31528      6.31406         0.009696      0.013256      0.016722
Li	      6.42051      4.36159     10.73236        -0.019207     -0.010656      0.016459
Li	      8.48872      6.44680     10.75201        -0.011858      0.003146      0.036998
Li	      4.28859      6.44761      6.47989        -0.013137      0.004610      0.052182
Sc	      8.63674      8.47266     12.67784         0.006327     -0.030818     -0.044646
Sc	      2.13694      4.25493      2.21027         0.023150     -0.027894      0.036284
Sc	      4.50453      4.32432      4.31969        -0.033862      0.058071     -0.002598
Sc	      8.59173      6.31805      6.29325         0.057453     -0.019149     -0.064305
Sc	      2.06944      4.37533      6.32668        -0.075998      0.027703     -0.036594
Sc	      6.40807      6.42064      8.70212        -0.061468      0.029374     -0.010919
Mn	      4.26981      2.07156      2.19061         0.034533      0.030971     -0.017608
V	      4.30317      6.45155      2.15893         0.069942     -0.088402      0.094615
Fe	      8.55896      8.65356      8.66868         0.081559     -0.129551     -0.105230
O	      2.03637      2.19405      2.04847        -0.040797     -0.035112      0.027518
O	      4.22660      4.40525      2.20562         0.033374      0.038038     -0.023457
O	      4.33912      2.21770      4.28440         0.008662     -0.032236      0.081809
O	      6.44368      4.31381      4.29537         0.047352     -0.003946     -0.022127
O	      6.45690      2.10837      6.66975         0.015497      0.000774     -0.078988
O	      8.59921      4.25485      6.50543        -0.003111      0.029898     -0.009475
O	      2.21685      4.30593      4.26719        -0.017662      0.006370      0.004704
O	      4.33668      6.43308      3.97552         0.029346      0.020600      0.017371
O	      4.25548      4.22897      6.43839         0.038301      0.013605      0.071174
O	      6.54413      6.50094      6.47231         0.013969     -0.047745     -0.012703
O	      6.41995      4.21492      8.58402        -0.019141     -0.023982     -0.022086
O	      8.67350      6.43215      8.49914         0.022664      0.035990      0.010469
O	      2.16835      6.45017      6.37653        -0.021652     -0.026403      0.010811
O	      4.27063      8.55715      6.44849         0.017647      0.029638     -0.048199
O	      4.35567      6.30494      8.55028        -0.035357      0.094009      0.006878
O	      6.55171      8.52636      8.49965        -0.016515      0.026623      0.013688
O	      6.47795      6.43106     10.63801        -0.045440     -0.020648     -0.056724
O	      8.59680      8.54515     10.61869        -0.004725      0.027113      0.142404
