# total energy = -252.76782245 eV
 
CRYSTAL
PRIMVEC
0.009631 6.513833 6.501706 
6.357319 0.012002 6.499188 
4.191322 4.293252 0.056164 
PRIMCOORD
36 1
Li	      0.06779      0.04011      0.09036        -0.006005      0.046687      0.049808
Li	      2.06025      2.08874      0.08002        -0.014002      0.000761     -0.011093
Li	      2.07350      6.53243      8.58879        -0.034463     -0.000165     -0.012162
Li	      2.07568      4.27758      2.22587         0.014395     -0.035262      0.074717
Li	      6.28642      6.48633      4.43082         0.014759     -0.007646      0.042208
Li	      4.26185      2.24940      6.55154         0.008729      0.014921     -0.004224
Li	      6.28514      4.31845      6.57576         0.042404      0.012296     -0.007772
Li	      6.32985      8.63061      6.58317         0.005542     -0.014711      0.018584
Li	      4.27885      4.31920      8.58170         0.020853      0.001303      0.013010
Sc	      4.13043      2.23775      2.06826        -0.045830      0.019553     -0.005728
Sc	      6.35258      2.17267      4.45319        -0.030763     -0.042089     -0.015448
Sc	      4.17237      4.28219      4.40907         0.046357     -0.023864     -0.037482
Sc	      2.08893      6.45399      4.44390         0.003320      0.066487     -0.022646
Sc	      4.21819      6.44981      6.58683         0.018794     -0.019297      0.035426
Sc	      6.46122      6.44107      8.57981         0.015431     -0.002774     -0.011753
Mn	      6.41056      2.23937      8.52735         0.007199     -0.006736      0.041281
V	      8.36872      4.28499      4.50923        -0.003260      0.031963      0.033558
Ni	      4.23331      8.61564      4.42475        -0.022905      0.019351      0.049328
O	      1.97448      2.20010      2.11669         0.058251     -0.006516      0.000039
O	      4.19970      4.28799      2.27447        -0.033855      0.049039     -0.048795
O	      4.21337      2.11518      4.27795        -0.025479     -0.012827     -0.009500
O	      6.39876      4.24275      4.34710        -0.031408      0.033441     -0.024595
O	      6.33454      2.14980      6.49756        -0.011119      0.034571     -0.039609
O	      8.45657      4.34731      6.22451        -0.011956      0.003631     -0.052242
O	      2.12348      4.40766      4.37138         0.083837     -0.036430      0.003084
O	      4.18609      6.45026      4.40167         0.032982     -0.048975      0.012376
O	      4.23935      4.39397      6.43405         0.009561     -0.044134      0.021072
O	      6.29904      6.45934      6.61295         0.033822     -0.006982     -0.055044
O	      6.39909      4.34421      8.78163        -0.009946     -0.007549     -0.112420
O	      8.58829      6.51743      8.74418        -0.043653      0.014773      0.019691
O	      2.15132      6.50908      6.43983        -0.011123     -0.007868      0.038228
O	      4.19447      8.59272      6.54321         0.016660      0.000263      0.058191
O	      4.27504      6.57386      8.75158        -0.016397     -0.060256      0.010630
O	      6.26362      8.55793      8.80600         0.012915      0.017474     -0.063312
O	      6.31105      6.51285     10.80066        -0.015855      0.042475      0.003315
O	      8.45544      8.76251     10.86131        -0.077794     -0.024910      0.009278
