# total energy = -258.91609175 eV
 
CRYSTAL
PRIMVEC
0.007102 6.536457 6.355816 
6.560197 -0.004294 6.367737 
4.364938 4.356566 0.004946 
PRIMCOORD
36 1
Li	      2.18824      8.64620      6.37019        -0.018199     -0.013496      0.007707
Li	      4.40299      2.19783      2.25962        -0.021628     -0.019699     -0.003233
Li	      8.73505     10.80658     10.57839         0.027448      0.035221     -0.016636
Li	      6.78538      8.72237     10.56297         0.046667     -0.016876      0.033012
Li	      4.50839      6.27929      2.18899        -0.034017      0.035754     -0.023076
Li	      8.82457      4.55761      8.58680        -0.020347      0.061967      0.004779
Li	      4.30014      4.30174      4.08376        -0.023173      0.020583      0.035166
Li	      8.73256      6.68013     10.43530        -0.012026     -0.006071      0.002289
Li	      8.67045      8.70382      8.60439         0.033775     -0.016408      0.007304
Sc	      4.28454      4.34388      0.08349        -0.024094      0.007198     -0.033421
Sc	      2.22381      2.16971      4.07639        -0.028617      0.056896      0.027808
Sc	      4.41298      2.20825      6.30597        -0.026245      0.018888     -0.009452
Sc	      6.62753      4.26064      6.38743        -0.010185      0.005821      0.023422
Sc	     10.77055      8.65923     10.52160         0.035028     -0.010793     -0.023377
Sc	      2.22599      4.40387      6.31388         0.019751     -0.042039     -0.033531
Mn	      6.49355      4.26372      2.22906        -0.042525     -0.042015      0.004045
Mn	      4.31902      6.55743      6.33146         0.002415     -0.016573      0.017123
V	      6.52113      6.59943      8.62749         0.076739     -0.030139     -0.050217
O	      2.20503      1.83099      2.10857        -0.024792     -0.008060     -0.026330
O	      4.32703      4.31681      2.06912        -0.055703      0.015059      0.044870
O	      4.24487      2.20644      4.31281         0.004549     -0.015151     -0.074299
O	      6.59208      4.36805      4.21542         0.001000     -0.024708     -0.029905
O	      6.47867      2.19872      6.44949         0.056121     -0.013640     -0.015487
O	      8.72635      4.44447      6.41912        -0.002128     -0.016975      0.002198
O	      2.11987      4.26785      4.25779         0.023820      0.016288     -0.023855
O	      4.42349      6.59631      4.18892        -0.032527      0.000300     -0.050223
O	      4.40928      4.33616      6.34773        -0.007879     -0.074239      0.024371
O	      6.59480      6.54429      6.37342         0.031085     -0.003902     -0.016977
O	      6.54381      4.59853      8.44503         0.033827     -0.066518      0.019435
O	      8.38949      6.62637      8.44538         0.061869     -0.037283     -0.016170
O	      2.14315      6.44735      6.53923        -0.020015      0.031152      0.057790
O	      4.47244      8.78842      6.28010        -0.009013      0.091082      0.031516
O	      4.68030      6.62689      8.43886        -0.013388     -0.004015      0.042099
O	      6.58622      8.77444      8.46973        -0.003303      0.049723      0.052807
O	      6.55677      6.51238     10.56235         0.016067      0.016646      0.047072
O	      8.80718      8.68578     10.65015        -0.040357      0.016023     -0.038624
