# total energy = -251.39263583 eV
 
CRYSTAL
PRIMVEC
0.016077 6.538492 6.395884 
6.496834 0.016906 6.395080 
4.319680 4.346980 0.022765 
PRIMCOORD
36 1
Li	      6.45257      6.62140     12.53256        -0.030030      0.009915      0.089416
Li	      8.74901     10.76593     10.85288        -0.011977     -0.025980     -0.041732
Li	      6.59444      2.12161      4.44981         0.040536     -0.005567     -0.069922
Li	      4.40927      4.33118      4.37640        -0.009907      0.027286     -0.014539
Li	      4.41629      2.30088      6.30143         0.012318      0.093223      0.016806
Li	      6.44584      4.22609      6.30424         0.023295     -0.043549     -0.016009
Li	     10.66849      8.81368     10.75616        -0.003156     -0.001861     -0.007200
Li	      8.55987      6.76222     10.75628        -0.021132      0.031035     -0.036932
Li	      4.40993      4.33046      8.52263        -0.000575      0.005047     -0.026138
Sc	      6.56083     10.85309      8.61875         0.058358     -0.098813      0.001214
Sc	     10.71190      6.64033      8.56189        -0.045238     -0.009842      0.119839
Sc	      8.66774      4.38111      8.48879        -0.034747      0.074030      0.012616
Sc	      6.47373      6.43130      4.43423        -0.068585      0.011531      0.063414
Sc	      2.24302      4.46491      6.23296         0.021655      0.032366      0.021565
Sc	      6.49514      6.48692      8.66980        -0.030694      0.042213      0.014478
Ti	      4.37100      2.21157      2.20728         0.239299     -0.079984      0.159211
Co	      4.32026      6.52582      6.30796        -0.036833      0.030680      0.025960
Cu	      8.60094      8.76326     12.64620         0.109551     -0.122098      0.113683
O	      8.66681      8.72582     10.72649        -0.018465      0.046979     -0.092913
O	      2.21096      2.14987      2.17488         0.052251      0.029611      0.021043
O	      4.33838      4.23749      2.14644        -0.035540     -0.056443      0.020505
O	      4.26992      2.17756      4.07501        -0.017650      0.004211     -0.180603
O	      6.46350      4.40197      4.21458         0.037423      0.004531      0.018028
O	      6.59695      2.18607      6.47524        -0.073065     -0.052966      0.032317
O	      8.66550      4.18523      6.45306         0.006699      0.080815      0.041761
O	      2.18845      4.21926      4.23599         0.008876     -0.018841     -0.072112
O	      4.39894      6.49317      4.22572         0.045122     -0.010527     -0.186072
O	      4.26099      4.46457      6.44486        -0.037156     -0.098330     -0.032138
O	      6.51311      6.66382      6.44288         0.042896      0.034330     -0.030613
O	      6.54932      4.36373      8.54226         0.038616     -0.031390     -0.032905
O	      8.67405      6.45346      8.48624         0.028709     -0.044023     -0.010569
O	      2.18999      6.57055      6.44050        -0.032476     -0.038752      0.029443
O	      4.31422      8.65315      6.55638         0.010708      0.070952      0.060318
O	      4.33906      6.72550      8.50335        -0.038147      0.079998      0.053446
O	      6.33816      8.74384      8.48719        -0.214319      0.029879     -0.020275
O	      6.52452      6.55868     10.58833        -0.016617      0.000333     -0.044391
