# total energy = -252.65199036 eV
 
CRYSTAL
PRIMVEC
0.004836 6.443917 6.343811 
6.456998 0.047398 6.302101 
4.335296 4.298344 0.000768 
PRIMCOORD
36 1
Li	      6.34527      0.11863      6.25409        -0.004343     -0.020485     -0.014931
Li	      6.52412      4.32412      2.23528         0.035107     -0.025370     -0.073989
Li	      4.21876      0.10813      4.13764        -0.029225     -0.057275     -0.036513
Li	      6.62934      6.18750      4.25161        -0.017008      0.015564     -0.006637
Li	      4.44823      4.26149      4.18207        -0.027037     -0.005526      0.020639
Li	      6.52771      4.34612      6.21664         0.023199     -0.041840      0.063488
Li	      6.42240      4.48121     10.40887         0.026850      0.032211      0.058030
Li	      4.54936      4.38392      8.49054         0.064872      0.002307     -0.026434
Li	      6.31563      6.42380      8.51809        -0.001148      0.043499     -0.013521
Sc	      8.67893      8.74439     12.56236        -0.056405      0.013394     -0.024701
Sc	      6.34895      2.28354      4.13652         0.043847     -0.007507      0.006456
Sc	      4.39544      6.39505      2.17016         0.030540     -0.012919      0.015410
Sc	      2.15386      4.26434      2.19121        -0.018519      0.007339      0.021013
Sc	      8.50953      6.53384     10.49409         0.000354      0.038197     -0.013366
Sc	      6.47703      8.59264      6.35412         0.032039      0.078283     -0.009468
Ti	      4.43566      6.32708      6.32451        -0.008249     -0.169957      0.055106
Co	      4.28638      2.16864      2.10219        -0.017278      0.031876      0.060777
Ni	      8.62919      6.39750      6.29465        -0.019305      0.121908     -0.014955
O	      2.22337      2.15564      2.06539         0.028404      0.003683      0.008181
O	      4.26962      4.22080      2.11677        -0.015446     -0.069739     -0.010955
O	      4.28458      2.17685      4.15006        -0.003696     -0.020508     -0.107759
O	      6.46509      4.25793      4.21250         0.025419      0.000837      0.018942
O	      6.50504      2.15160      6.33761         0.059400     -0.004556      0.002504
O	      8.64428      4.33684      6.35923        -0.014515     -0.074794     -0.019404
O	      2.11521      4.41590      4.27426        -0.022308     -0.024649      0.014780
O	      4.29220      6.45154      4.33661         0.004954     -0.026339      0.083518
O	      4.25708      4.42597      6.43844         0.008205      0.231036     -0.022218
O	      6.39892      6.49923      6.31362        -0.159319     -0.017058      0.031444
O	      6.54696      4.19576      8.46666         0.002224     -0.034419     -0.041580
O	      8.74357      6.42788      8.39160         0.023529      0.020964      0.066191
O	      2.35583      6.47325      6.27737         0.055501     -0.000862      0.001398
O	      4.33546      8.52522      6.46475        -0.019793     -0.037962      0.001547
O	      4.32221      6.64310      8.26099        -0.012593      0.025965     -0.105872
O	      6.22008      8.64921      8.40407        -0.052125      0.001180      0.003670
O	      6.51849      6.55044     10.52780        -0.001532     -0.014447     -0.001909
O	      8.56956      8.62352     10.53274         0.035402     -0.002033      0.011120
