# total energy = -254.60136111 eV
 
CRYSTAL
PRIMVEC
0.054246 6.398188 6.479755 
6.442300 0.026747 6.508767 
4.294093 4.283509 0.018687 
PRIMCOORD
36 1
Li	      2.15881      2.10629      0.13717         0.042332     -0.023992      0.014171
Li	      2.14786      0.08855      2.10595         0.007431      0.095122     -0.018414
Li	      4.20167      2.10619      2.19994        -0.099242     -0.025674     -0.026274
Li	      4.33625      6.32771      2.20120         0.099467     -0.008557      0.078153
Li	      2.24943      4.29088      2.16574         0.013452     -0.077251      0.060951
Li	      4.32537      4.28948      4.18282         0.006821      0.027110     -0.132324
Li	      8.59619      6.45501      6.58534         0.028820      0.020443      0.039536
Li	      4.29835      6.43354      6.58312        -0.030457     -0.003431      0.031889
Li	      6.46724      6.43561      8.64230        -0.020370      0.007700      0.068776
Sc	      4.26780      4.34059      0.22409         0.002430     -0.034617      0.099186
Sc	      6.25228      2.20015      4.29427         0.132385      0.018664     -0.065704
Sc	      4.34777      8.53116      4.34253         0.053313     -0.025282     -0.057802
Sc	      2.28234      6.35384      4.24401        -0.026205     -0.068715      0.049690
Sc	      6.50171      8.48664      6.56951        -0.026651      0.056158     -0.076247
Sc	      4.33787      4.34008      8.59613         0.054880      0.002285      0.012100
Ti	      6.58084      4.33443      6.56773         0.110081     -0.102288     -0.080070
Co	      2.19657      2.11179      4.14725        -0.147257      0.069292      1.116060
Co	      4.31413      6.43620     10.72555         0.057755      0.172100     -0.051091
O	      2.14621      2.12407      2.36967         0.039339      0.038818     -0.041190
O	      4.28787      4.30768      2.14125         0.007339      0.003625     -0.137240
O	      4.26306      2.14077      4.33907        -0.386181     -0.216187     -0.213118
O	      6.46192      4.28708      4.51596        -0.063086     -0.112672     -0.006579
O	      6.46504      2.27023      6.41638        -0.007424      0.024304      0.001793
O	      8.48922      4.29179      6.50967        -0.094105     -0.019262     -0.028593
O	      2.14067      4.24744      4.39421         0.005830      0.134135     -0.041409
O	      4.33644      6.49140      4.33690         0.224125     -0.071463     -0.128977
O	      4.37369      4.27718      6.55974         0.037325     -0.041382     -0.013781
O	      6.47325      6.30555      6.38321         0.041769      0.020776     -0.355278
O	      6.46666      4.32433      8.52793        -0.026074      0.087819     -0.176859
O	      8.61619      6.48751      8.76555        -0.041416      0.015656     -0.051183
O	      2.12240      6.31353      6.43467         0.017705      0.005838     -0.040166
O	      4.38872      8.61093      6.41228        -0.027052     -0.025908      0.019404
O	      4.34868      6.38278      8.70935         0.089251     -0.112713      0.144725
O	      6.53978      8.54085      8.65802        -0.061207     -0.033947     -0.013477
O	      6.49908      6.43880     10.88210         0.101878      0.059068     -0.007955
O	      8.66182      8.50707     10.78267        -0.117003      0.144428      0.027297
