# total energy = -91.05128474 eV
 
CRYSTAL
PRIMVEC
1.953540 4.034921 1.953365 
1.991321 -4.073118 1.991083 
3.963329 -0.000058 -3.962942 
PRIMCOORD
16 1
Li	      3.86519     -3.92747     -0.02199        -0.500501     -0.401720      0.135547
Li	      5.70270     -0.01840     -1.89478         0.737114     -0.120036     -0.514754
Li	      1.94469     -1.96138     -0.02246        -0.493675     -0.041597     -0.095272
Li	      5.68971      1.92962      0.00002         0.114677      0.496754     -0.049514
Mn	      5.72921     -3.92958     -1.88486         1.391994     -3.244019     -2.473261
Mn	      1.90952      1.94760     -0.02287        -1.382315      2.846430      0.296013
Ni	      3.80039      1.94775     -1.91406         0.849752      1.680709     -1.581737
Ni	      3.83287     -0.01749     -0.02489        -0.019093     -0.523735      0.710785
O	      5.81221     -0.02943     -0.02459         0.799358      0.360937      0.510023
O	      3.69352      1.84188     -0.01335         2.027292      1.703038      0.823247
O	      3.83203     -0.00575     -2.00429        -0.451125     -0.681113     -0.645002
O	      3.80983     -0.17832      1.96605         0.184503      0.358103      1.433915
O	      3.82105     -1.87730      0.11402         0.179280     -2.074705     -1.180014
O	      1.90259      2.08380      1.80455        -0.545891      0.760251      1.948010
O	      1.84110      0.14306     -0.00190        -1.473266     -1.416510     -0.087122
O	      2.00322     -2.11817      1.90493        -1.418103      0.297214      0.769134
