# total energy = -259.79636700 eV
 
CRYSTAL
PRIMVEC
0.034463 6.438935 6.365478 
6.489860 0.006810 6.393544 
4.353483 4.338973 -0.022006 
PRIMCOORD
36 1
Li	      6.51161     10.68971      8.50415        -0.039732      0.023898      0.022043
Li	      6.56675      8.65655     10.57916         0.018447     -0.004419      0.010978
Li	     10.67600      6.53238      8.48580         0.007340      0.006880     -0.028865
Li	      4.29695      4.34634      4.23848        -0.016723      0.009084     -0.008845
Li	      4.45393      2.23214      6.39984         0.032486      0.016464     -0.029832
Li	      6.51287      4.28159     10.60658         0.012311     -0.030586     -0.005409
Li	      2.31765      6.36783      4.14311         0.057292     -0.036479      0.004348
Li	      2.20254      4.32471      6.32827        -0.017182     -0.010937     -0.017058
Li	      8.72069      8.48428      8.55817         0.024864     -0.031282      0.045054
Sc	      6.55084      6.50236     12.70385        -0.059708      0.055735      0.050218
Sc	      8.69207      8.60338     12.73295        -0.081503      0.074656     -0.029865
Sc	      4.46396      2.26976      2.16353        -0.084397      0.153202      0.089166
Sc	      8.63934     10.69870     10.50181         0.008775      0.026737      0.073298
Sc	      2.13817      2.26786      4.21561        -0.129701      0.096673     -0.031610
Sc	      6.69980      6.47929      8.54345         0.065480     -0.119100     -0.024641
Ti	      4.27908      6.30061      6.34587         0.060646     -0.318145     -0.352165
Cr	      6.48402      4.28848      6.37735         0.104447     -0.033598      0.055376
Co	      2.19422      4.36023      2.19048         0.053283      0.053725     -0.084003
O	      2.24926      2.21303      2.12901        -0.086756      0.376351      0.031057
O	      4.36496      4.32278      2.00029        -0.176488      0.003741      0.017090
O	      4.22953      2.09897      4.21449         0.068463     -0.027521      0.064418
O	      6.53413      4.38141      4.34279        -0.012984     -0.048333     -0.047675
O	      6.54413      2.18601      6.37105        -0.006725      0.011660      0.008294
O	      8.64759      4.30027      6.30177        -0.021819      0.023989      0.046273
O	      2.18173      4.26665      4.29036        -0.003353      0.014955     -0.084445
O	      4.37720      6.48663      4.47446        -0.039634     -0.012755      0.255589
O	      4.44688      4.43192      6.40187        -0.047065      0.231371     -0.001147
O	      6.33966      6.34982      6.38329        -0.016157      0.018203      0.023663
O	      6.56745      4.35110      8.36508         0.156142     -0.043906      0.111447
O	      8.68077      6.46112      8.47912         0.098536     -0.512096      0.042712
O	      2.28459      6.48062      6.40028         0.036190     -0.003244     -0.003410
O	      4.30630      8.62633      6.41799         0.050590     -0.020357     -0.071869
O	      4.40404      6.52542      8.41516        -0.025209     -0.002431     -0.078555
O	      6.51346      8.55150      8.47603         0.000157      0.068401     -0.010631
O	      6.41885      6.43478     10.63507         0.003855      0.011435      0.004586
O	      8.69151      8.68554     10.68520         0.005832     -0.021972     -0.045584
