# total energy = -257.34212385 eV
 
CRYSTAL
PRIMVEC
0.022631 6.507279 6.453205 
6.416442 -0.007813 6.483743 
4.270958 4.351910 0.001658 
PRIMCOORD
36 1
Li	      6.35717      2.25368      4.37909        -0.021355      0.062798      0.052373
Li	     10.59469      6.54048      8.73050        -0.005159      0.019838     -0.026416
Li	      6.40963      6.56688      4.39071         0.002409     -0.026500     -0.027272
Li	      4.21107      4.37725      4.38262         0.054605     -0.004434     -0.008361
Li	      8.39875      6.60506      6.52677         0.054496     -0.018593      0.002042
Li	      6.35626      4.39307      6.51974        -0.018383     -0.043967     -0.015257
Li	      2.26311      6.35710      4.17438         0.002621     -0.007568      0.008690
Li	      2.29684      4.15483      6.33949        -0.023606     -0.004454     -0.038501
Li	      6.55586      6.37002      8.45515        -0.025400     -0.062155     -0.004611
Sc	      6.43731      0.06847      6.44065         0.000801      0.028982     -0.042047
Sc	      8.46989      2.18780      6.49247        -0.046701      0.028897     -0.046612
Sc	      8.45683      4.39469      4.36174        -0.002728      0.020978      0.055351
Sc	      0.16484      4.30470      4.23077        -0.008645      0.008515     -0.012690
Sc	      4.43118      6.41511      6.38314        -0.013012     -0.024991     -0.058750
Sc	      8.55614      8.46929      8.59144        -0.047736     -0.032349      0.032871
Ti	      4.36309      2.23335      2.26624         0.104911      0.049599      0.314672
Cr	      6.38626      4.38968      2.22108         0.000517      0.017370     -0.029727
Ni	      8.49609      4.46040      8.65127         0.072990     -0.092321     -0.038853
O	      2.32339      2.12202      2.11047         0.011820     -0.028273      0.005090
O	      4.31562      4.18538      2.13151         0.045475     -0.071127     -0.002500
O	      4.31130      2.11947      4.11155        -0.015430      0.046737     -0.286488
O	      6.43852      4.35185      4.17999        -0.015115      0.043964      0.017541
O	      6.48226      2.07270      6.49672        -0.032046      0.003768      0.009762
O	      8.57578      4.29613      6.49085         0.019470      0.012601     -0.015160
O	      2.15465      4.36885      4.19548         0.023822     -0.068187      0.126796
O	      4.26852      6.60442      4.37798         0.002005     -0.012182     -0.025655
O	      4.26907      4.38509      6.57250         0.010681     -0.001023      0.007823
O	      6.38597      6.51410      6.47609        -0.003985     -0.030821     -0.028591
O	      6.38450      4.30924      8.66976        -0.091242     -0.001917     -0.019050
O	      8.53654      6.51057      8.62765         0.021824      0.039330     -0.014478
O	      2.14177      6.60598      6.60947         0.021761      0.034299      0.058746
O	      4.27447      8.68625      6.51640        -0.017697     -0.001482      0.045578
O	      4.19584      6.61325      8.63755        -0.014799      0.055986     -0.033655
O	      6.33363      8.82692      8.61942        -0.095545      0.054282      0.022548
O	      6.34540      6.42470     10.88345         0.027198     -0.014239      0.016861
O	      8.59330      8.78418     10.77747         0.021178      0.018639     -0.002071
