# total energy = -264.29661953 eV
 
CRYSTAL
PRIMVEC
0.030654 6.542470 6.472189 
6.422106 0.049302 6.453402 
4.299763 4.367528 0.014785 
PRIMCOORD
36 1
Li	      2.10230      2.14659      0.08030        -0.047667     -0.032117      0.002407
Li	      2.10682      0.09286      2.04755        -0.054021      0.051611      0.011745
Li	      6.37472      2.30401      8.53156         0.019216      0.000869      0.004868
Li	      8.57216      4.43890      8.54414         0.004762      0.005541     -0.010645
Li	      4.29103      4.42877      4.30609         0.024028      0.050571     -0.000697
Li	      8.67218      6.59451      6.64024         0.017026     -0.008080      0.056494
Li	      0.04043      4.28455      4.22701         0.029282     -0.007684     -0.083361
Li	      4.30173      6.54744      6.51196         0.048150     -0.000549     -0.003719
Li	      4.42409      4.28916      8.56447         0.039868     -0.052192      0.010400
Sc	      8.61440     10.86556     10.82551        -0.133504     -0.065296     -0.018027
Sc	      6.38126      2.27755      4.34235         0.006893      0.112121      0.031093
Sc	      6.34535      6.64684      4.32382        -0.025090      0.001384      0.089352
Sc	      2.31438      6.56149      4.26987         0.067323     -0.023806     -0.033239
Sc	      2.34149      4.44550      6.51442         0.080134     -0.091986     -0.018143
Sc	      6.48775      6.45344      8.53387         0.027832     -0.067458     -0.059444
Ti	      4.17390      2.24071      2.06689        -0.186220      0.151165     -0.152231
Cr	      4.27482      4.36751      0.06444        -0.030691     -0.006464      0.016197
Cr	      6.40735      4.33787      6.54195         0.035531      0.038314     -0.031999
O	      2.27964      2.16189      2.22391         0.236301      0.005153     -0.050670
O	      4.30889      4.18604      2.06721        -0.027428     -0.178065     -0.024868
O	      4.26813      2.15671      4.16587        -0.003589     -0.011721     -0.057250
O	      6.47388      4.39189      4.40974         0.023953     -0.057315     -0.046468
O	      6.40114      2.05245      6.40994        -0.026073     -0.106899      0.007464
O	      8.62584      4.39230      6.40361         0.042486     -0.038895      0.018779
O	      2.16720      4.37850      4.41029         0.025435      0.048165     -0.009828
O	      4.32907      6.57928      4.30061        -0.065463      0.024029      0.020655
O	      4.32788      4.42300      6.51558        -0.033391      0.024908      0.049372
O	      6.46919      6.70743      6.45775         0.009225      0.070179      0.028957
O	      6.43850      4.44283      8.57191         0.011698      0.029660      0.087889
O	      8.52225      6.57039      8.70707         0.029997      0.022682     -0.006642
O	      2.06862      6.51201      6.41480        -0.021689      0.058824      0.021616
O	      4.34685      8.82016      6.62675        -0.030423      0.016302      0.205470
O	      4.36612      6.73945      8.68309        -0.044509      0.089580     -0.058519
O	      6.33470      8.69135      8.65845        -0.052532      0.005479      0.014598
O	      6.44472      6.64123     10.80864         0.002512     -0.039644      0.019745
O	      8.51334      8.77921     10.74995         0.000639     -0.018367     -0.031349
