# total energy = -250.10447077 eV
 
CRYSTAL
PRIMVEC
0.021377 6.363734 6.549852 
6.357079 0.039882 6.530815 
4.278319 4.269753 -0.013673 
PRIMCOORD
36 1
Li	      6.39365      6.42676     13.06048        -0.010155     -0.055273      0.062174
Li	      8.43573      2.17465      6.55439         0.036694     -0.006630      0.117322
Li	      6.37548     10.63991      8.66892        -0.040135      0.005108     -0.055724
Li	      0.03191      2.08896      2.14192         0.053891     -0.043589      0.002876
Li	      4.21691      4.33370      4.21389        -0.112548      0.021112     -0.077393
Li	      6.47049      4.19103      6.54414         0.018031     -0.002756      0.048461
Li	      6.35753      4.39993     10.84018         0.059687      0.013254      0.013391
Li	      2.18465      6.33486      4.35952         0.141005     -0.061703      0.007409
Li	      6.38326      6.41258      8.84594        -0.010120      0.042674     -0.008245
Sc	      6.44179      8.47485     10.93270        -0.132623      0.157719     -0.092214
Sc	      6.33830      6.30480      4.28275        -0.003379      0.161890     -0.074420
Sc	      8.56861      6.38608      6.55988        -0.116246      0.031223     -0.009463
Sc	      2.05499      4.35873      6.50344        -0.188387     -0.060333      0.075589
Sc	      4.19437      6.43419      6.46537         0.063692      0.171266      0.139113
Sc	      4.42375      4.32422      8.79744        -0.037294      0.029801     -0.315420
Ti	      8.47454      4.32556      8.72625         0.110034     -0.121995     -0.120369
Cu	      4.28086      8.51407      8.69967         0.045418      0.037484     -0.006153
Cu	      8.57888     10.60836     10.90190        -0.049465      0.089615      0.014600
O	      4.10785      4.15296      2.23161        -0.090653      0.143009      0.044627
O	      2.21375      2.25558      2.20935        -0.239221      0.054445      0.066278
O	      4.25787      2.09247      4.34360         0.087978     -0.218775      0.217017
O	      6.52459      4.26386      4.31505         0.173905     -0.147016      0.020551
O	      6.29801      2.17703      6.43875         0.088685     -0.013791     -0.060641
O	      8.45517      4.35995      6.81288        -0.001086     -0.062803      0.202077
O	      2.11088      4.22520      4.29651        -0.001204      0.025560     -0.038633
O	      4.33806      6.32327      4.41934        -0.047801     -0.040821     -0.053259
O	      4.18661      4.26203      6.67194         0.060737     -0.033154      0.016317
O	      6.41504      6.49063      6.38796         0.005121     -0.053972     -0.058758
O	      6.47697      4.26615      8.75474         0.013777      0.021628      0.035679
O	      8.56019      6.35694      8.67375        -0.021057      0.003095      0.058097
O	      2.17451      6.35272      6.50605        -0.097057      0.102932     -0.051749
O	      4.28190      8.51357      6.68306         0.046571     -0.065228     -0.401647
O	      4.31816      6.39954      8.57926         0.018932     -0.097394     -0.002351
O	      6.38216      8.53608      8.69372         0.254991     -0.027103      0.118816
O	      6.26294      6.42858     10.91193        -0.141201     -0.098083     -0.002734
O	      8.51226      8.56330     10.81497         0.060482      0.098604      0.168779
