# total energy = -254.93005197 eV
 
CRYSTAL
PRIMVEC
0.055641 6.541496 6.343624 
6.563880 0.015661 6.383693 
4.376793 4.388643 0.009369 
PRIMCOORD
36 1
Li	      6.55403      4.45353      2.35259         0.003905      0.021349     -0.076069
Li	      4.30654      2.23893      2.39415         0.018521     -0.003849     -0.018329
Li	      8.45835      4.58728      4.30435         0.025169      0.009495     -0.035466
Li	      6.35905      2.49485      4.22329        -0.018710     -0.038494     -0.017812
Li	      2.32440      4.22302      2.24574         0.015384     -0.049997      0.043614
Li	      2.38969      1.96109      4.18872        -0.018242      0.038695     -0.010414
Li	      4.63499      4.16997      4.28714        -0.048246      0.009931     -0.027458
Li	      6.49885      4.50794      6.08355         0.030499     -0.025429      0.076502
Li	      2.23062      6.50213      4.28920         0.024799      0.000979     -0.015248
Sc	      8.73119      2.19172      6.38634        -0.033752     -0.039968     -0.049986
Sc	      4.41780      6.45353      2.23602        -0.012739      0.023640      0.045629
Sc	      0.12949      4.34508      4.20536         0.011374      0.012159     -0.052286
Sc	      2.28441      4.39847      6.27340         0.011225     -0.006066      0.003817
Sc	      8.73015      8.81956      8.61533        -0.001870      0.012254      0.039081
Sc	      6.62338      6.59868      8.53817        -0.001685     -0.011928      0.002826
Ti	     10.79759      4.48507      6.36044        -0.165328      0.036360      0.015054
Fe	      4.48431      6.45738      6.30110        -0.080252      0.081478     -0.019535
Co	      4.39706      2.16202      6.25896        -0.009900     -0.096586     -0.018344
O	      2.05790      2.21922      2.03349        -0.008037     -0.008732      0.026073
O	      4.35895      4.42387      1.89954        -0.031322      0.029659     -0.119287
O	      4.38647      2.19040      4.36464        -0.008423      0.034665      0.034302
O	      6.56420      4.38847      4.23387        -0.008124      0.013442      0.003821
O	      6.60959      2.02594      6.40360         0.035068     -0.190547      0.025406
O	      8.94172      4.33728      6.34963         0.172749     -0.000234      0.049932
O	      2.14644      4.40915      4.27922         0.014600      0.032629     -0.004834
O	      4.36605      6.63041      4.31129        -0.020579      0.023942     -0.024658
O	      4.36094      4.48952      6.38774        -0.031480      0.002732      0.019186
O	      6.50522      6.63489      6.40891        -0.010924      0.053417     -0.004390
O	      6.50486      4.36932      8.54262         0.000751      0.000414     -0.046174
O	      8.77473      6.66592      8.35646         0.033591      0.019791     -0.014361
O	      2.23648      6.56107      6.32993         0.101990      0.005993      0.031159
O	      4.42274      8.82646      6.33235        -0.015246      0.059703      0.014276
O	      4.51699      6.50965      8.31480        -0.001725     -0.015479      0.006552
O	      6.68402      8.63716      8.43572        -0.014976      0.019168      0.035611
O	      6.68741      6.47123     10.68879         0.016954     -0.015549      0.071982
O	      8.91460      8.73834     10.63400         0.024980     -0.039039      0.009829
