# total energy = -254.68138046 eV
 
CRYSTAL
PRIMVEC
-0.012091 6.464442 6.356745 
6.430987 -0.028478 6.373884 
4.282015 4.315612 -0.013402 
PRIMCOORD
36 1
Li	      0.02262      6.42803      6.34693        -0.009617     -0.014960     -0.033087
Li	      4.29400      2.06886      2.22734        -0.013112     -0.003394      0.048879
Li	      4.24851      0.08837      4.11399        -0.006437     -0.056870      0.032195
Li	      4.27727      6.49893      2.13572         0.003808      0.016480     -0.024385
Li	      6.45534      6.36404      4.32263        -0.011305     -0.009014      0.022472
Li	      4.33459      4.37541      4.30754         0.012952      0.063066      0.066543
Li	      4.34285      6.39274      6.40692        -0.058688     -0.000072     -0.063726
Li	      4.30918      4.53398      8.36960        -0.007861     -0.013986     -0.011839
Li	      6.21469      6.35670      8.41929        -0.020799      0.006471      0.001355
Sc	      2.15570      8.63117      6.36317         0.009622      0.022623     -0.060570
Sc	      2.23444      0.06899      2.23640        -0.058510      0.047755     -0.030270
Sc	      6.34624      8.52167     10.53565        -0.044107      0.000367      0.029150
Sc	      8.55203      6.47514      6.36975        -0.007624     -0.015986      0.086606
Sc	      6.38004      4.27476     10.45401        -0.006194      0.019896      0.009885
Sc	      6.35694      8.58647      6.41533         0.019453     -0.017651      0.000325
Ti	      2.36860      4.27530      2.12973         0.400293      0.037853     -0.159006
Fe	      8.62478      6.42665     10.52065        -0.107649      0.018845      0.078649
Cu	      6.34899      4.35129      6.37028         0.001341      0.015221     -0.026336
O	      2.16350      2.24706      2.10068        -0.044331     -0.050452     -0.013852
O	      4.20041      4.28708      2.18922        -0.253978      0.023261     -0.005456
O	      4.34979      2.03522      4.36106         0.046785      0.032749     -0.065026
O	      6.41106      4.25641      4.31215         0.040308     -0.015882     -0.084511
O	      6.45770      2.13424      6.30519         0.065427      0.021280     -0.021574
O	      8.65980      4.25122      6.55695         0.194087     -0.003407      0.180928
O	      2.08411      4.36605      4.16921        -0.005353      0.000865     -0.002690
O	      4.12746      6.54744      4.19657         0.080889      0.012949     -0.000699
O	      4.15369      4.21441      6.39700        -0.212564     -0.007205     -0.014483
O	      6.45262      6.51022      6.36057        -0.020493      0.008921      0.031333
O	      6.49526      4.28191      8.39026         0.039151     -0.028809      0.024654
O	      8.63052      6.20133      8.50398         0.023673     -0.077939     -0.009480
O	      2.09685      6.48735      6.37116        -0.040230     -0.013262      0.000267
O	      4.24886      8.67118      6.19903         0.024511     -0.039441     -0.044451
O	      4.18242      6.48316      8.50013        -0.039710      0.055222     -0.007871
O	      6.34608      8.75862      8.46324         0.013388     -0.029416      0.017144
O	      6.56891      6.43839     10.51648        -0.021386     -0.029258      0.019918
O	      8.54858      8.50930     10.60511         0.014260      0.023183      0.029010
