# total energy = -255.31409719 eV
 
CRYSTAL
PRIMVEC
-0.002609 6.246601 6.480484 
6.474293 -0.021571 6.500251 
4.320447 4.182365 -0.018826 
PRIMCOORD
36 1
Li	      2.14880      2.05305      0.09285        -0.012655      0.019538      0.081022
Li	      2.14161      0.06168      2.18864         0.028678      0.028412     -0.023348
Li	      6.45580      8.33458     10.77204        -0.037421     -0.000327     -0.000006
Li	      4.37764      6.22623      2.19111         0.048353      0.025685      0.015729
Li	      6.42922      6.21229      4.26031        -0.025329     -0.014826     -0.059723
Li	      8.62658      6.25555      6.47906        -0.005316      0.008771      0.059939
Li	      8.66355      6.25074     10.78490         0.015300      0.011955     -0.010599
Li	      4.33586      6.21619      6.45211         0.034801      0.008744     -0.040370
Li	      6.49761      6.26205      8.58919        -0.014825     -0.008325     -0.050820
Sc	      4.29189      8.27664      8.62096         0.061905     -0.065938      0.019186
Sc	      8.56988      4.20997      4.33799         0.014260      0.025704      0.016124
Sc	      8.63725      4.22761      8.66064        -0.030203      0.048074      0.023685
Sc	      6.40658      4.21464      6.48824         0.035663     -0.083460      0.032317
Sc	      4.28455      8.17246      4.31611        -0.040760      0.015384     -0.011223
Sc	      2.24011      4.06787      6.44271         0.007647      0.030466      0.007532
Ti	      6.62188      0.15900      6.46551         0.231098      0.243987     -0.124186
Fe	      8.52654      8.23624      8.69146         0.064549      0.184191     -0.126029
Ni	      4.37586      4.19791      4.28803        -0.007719     -0.061071      0.004217
O	      2.26962      2.17190      2.12302        -0.002492     -0.078685      0.020483
O	      4.27943      4.18137      2.02168         0.035730     -0.015131     -0.070916
O	      4.36653      2.10838      4.20876        -0.013419     -0.098149      0.031023
O	      6.48120      4.14829      4.42656         0.079202      0.010697     -0.067918
O	      6.50014      2.00531      6.49864        -0.013120     -0.262513      0.024388
O	      8.61597      4.18675      6.49767         0.062222     -0.003901     -0.002640
O	      2.13020      4.17873      4.29924        -0.022435     -0.034984      0.009044
O	      4.29929      6.20193      4.33917         0.019793      0.112268     -0.040782
O	      4.32257      4.16026      6.54393        -0.017820     -0.013082      0.041698
O	      6.46790      6.23652      6.47874        -0.005673      0.023286     -0.000026
O	      6.48598      4.15087      8.66984        -0.036435      0.010806      0.002760
O	      8.61190      6.30654      8.65248        -0.011211     -0.137621      0.018692
O	      1.98630      6.25120      6.47703        -0.224592      0.012991     -0.033819
O	      4.40687      8.39756      6.45467        -0.049330      0.029984      0.000353
O	      4.30403      6.19877      8.73746        -0.011289     -0.067954     -0.035325
O	      6.52822      8.31994      8.53698        -0.123277      0.044600      0.005141
O	      6.36837      6.17853     11.05146         0.031706      0.059889      0.131919
O	      8.68589      8.34253     10.66646        -0.065586     -0.009466      0.152477
