# total energy = -258.78872398 eV
 
CRYSTAL
PRIMVEC
0.028525 6.374129 6.566480 
6.359322 -0.009130 6.604882 
4.248727 4.283783 -0.015507 
PRIMCOORD
36 1
Li	      6.42356      6.38955     13.00317         0.026603      0.019168     -0.001533
Li	      8.44133      8.46649     13.07103        -0.019319     -0.023320      0.028207
Li	      4.29303      8.47137      8.73529         0.005848      0.029289     -0.062628
Li	      6.50210      8.47102     11.01938        -0.001578      0.006016     -0.027272
Li	      2.17409      2.08513      4.38402        -0.011105     -0.010867     -0.066835
Li	      6.33785      4.24636      6.55392        -0.004838     -0.019550      0.069626
Li	      2.06222      6.45333      4.52106         0.026230      0.025303      0.043058
Li	      2.12607      4.29170      6.59555        -0.006259      0.048007      0.048948
Li	      8.47877      8.57004      8.82567         0.003895     -0.029364      0.088620
Sc	      6.44265     10.55715      8.70785        -0.049404     -0.016460     -0.045759
Sc	      6.34475      2.19337      8.74435        -0.046302     -0.033564     -0.068230
Sc	      2.17375      4.16281      2.12732         0.014170      0.037788     -0.030764
Sc	      4.24904      4.21135      4.43352        -0.016312     -0.036558     -0.090145
Sc	      4.22727      2.15855      6.54592         0.068549     -0.062466      0.094446
Sc	      6.34053      6.49516      8.84627         0.062185      0.018266      0.065424
Ti	      4.27904      6.53863      6.48708        -0.138094      0.356793      0.045874
Fe	      8.44755      4.18408      4.58091         0.024622      0.068784     -0.067475
Fe	      4.29710      8.53502      4.41776        -0.017649      0.073212     -0.029731
O	      2.05633      2.11918      2.16656         0.010911     -0.008419      0.045403
O	      4.27230      4.32532      2.27611         0.000297     -0.040357      0.007677
O	      4.19723      2.10339      4.49521         0.022053     -0.052177      0.003540
O	      6.44439      4.26455      4.27884        -0.092988     -0.006210     -0.001577
O	      6.27821      2.11411      6.73420        -0.013390      0.014997      0.002247
O	      8.47443      4.30369      6.56189        -0.021184      0.030827      0.090959
O	      2.15654      4.26462      4.23507         0.090525     -0.025649     -0.004391
O	      4.27124      6.34465      4.49600         0.043158     -0.055045      0.069301
O	      4.27048      4.26559      6.46472        -0.028468      0.099898     -0.006319
O	      6.27894      6.38375      6.67645        -0.060725      0.014580     -0.035696
O	      6.44027      4.26230      8.80157        -0.003504     -0.027307     -0.034217
O	      8.47177      6.34122      8.69052         0.009690      0.016115     -0.020922
O	      2.32994      6.37077      6.62188         0.175533      0.023600     -0.042128
O	      4.31516      8.39331      6.56137         0.011229     -0.433398      0.021393
O	      4.26942      6.38201      8.61267         0.005558      0.008780     -0.047324
O	      6.39633      8.52243      8.75897        -0.012414     -0.010967     -0.030423
O	      6.24989      6.41634     10.92973         0.033679      0.039368     -0.018850
O	      8.57745      8.62610     10.98432        -0.091203     -0.039115      0.007496
