# total energy = -91.64081846 eV
 
CRYSTAL
PRIMVEC
1.963662 4.055827 1.963486 
2.001639 -4.094223 2.001399 
3.983865 -0.000059 -3.983475 
PRIMCOORD
16 1
Li	      3.90535     -3.96827     -0.02222        -0.421842     -0.333325      0.118733
Li	      5.76194     -0.01859     -1.91447         0.616329     -0.098242     -0.423235
Li	      1.96490     -1.98176     -0.02269        -0.404419     -0.034637     -0.073572
Li	      5.74882      1.94967      0.00002         0.089478      0.402346     -0.037285
Mn	      5.78873     -3.97040     -1.90444         1.222865     -2.819657     -2.147773
Mn	      1.92936      1.96783     -0.02311        -1.093440      2.381981      0.285256
Ni	      3.83987      1.96799     -1.93394         0.711442      1.366345     -1.293399
Ni	      3.87269     -0.01767     -0.02514        -0.023915     -0.421209      0.595201
O	      5.87260     -0.02974     -0.02485         0.687938      0.339334      0.426452
O	      3.73189      1.86102     -0.01349         1.637434      1.431910      0.668188
O	      3.87184     -0.00581     -2.02511        -0.377487     -0.531499     -0.565627
O	      3.84942     -0.18017      1.98648         0.145051      0.295371      1.238076
O	      3.86075     -1.89680      0.11521         0.122779     -1.763921     -0.982617
O	      1.92236      2.10545      1.82329        -0.453279      0.700580      1.603991
O	      1.86023      0.14455     -0.00192        -1.252099     -1.120029     -0.064001
O	      2.02404     -2.14017      1.92471        -1.206834      0.204653      0.651611
