# total energy = -257.23409204 eV
 
CRYSTAL
PRIMVEC
0.009506 6.650806 6.232276 
6.499149 0.014162 6.228028 
4.333627 4.432301 0.008506 
PRIMCOORD
36 1
Li	      6.42519      2.35533      4.21372        -0.057825      0.115741      0.034956
Li	      4.27979      6.59524      2.13115        -0.005894     -0.015734     -0.029504
Li	      2.27169      4.48042      2.11332         0.078452     -0.013192     -0.026931
Li	      4.25926      4.52997      4.26008         0.036026      0.004133     -0.008246
Li	      4.40927      2.24570      6.19000        -0.008290     -0.004133      0.031991
Li	      6.46454      4.37732      6.21687        -0.027887      0.008970      0.049765
Li	      2.32221      6.50063      4.17707        -0.006738     -0.065530      0.010472
Li	      2.29695      4.48376      6.15223        -0.032158     -0.045757     -0.010194
Li	      4.29703      6.51108      6.17068         0.028109     -0.022526      0.012588
Sc	      6.45045      0.12444      6.14101         0.013205     -0.007897      0.032528
Sc	      8.54943      2.31003      6.17909         0.025869     -0.001990      0.064569
Sc	      6.52507     11.06933      8.34577        -0.028355      0.081289     -0.015454
Sc	      4.41721      8.87483      8.34304        -0.026943      0.073143     -0.050357
Sc	      6.52673      6.63962      4.33871        -0.049827      0.028667      0.041533
Sc	      4.40901      8.75401      4.14551         0.026515      0.024009     -0.059163
Ti	      8.68574      8.71914      8.19578         0.050666     -0.217188     -0.304620
Mn	      6.51968      6.61904      8.25850         0.005694     -0.033195     -0.027529
Ni	      8.63546      4.45997      4.18548         0.033360      0.031735      0.031027
O	      2.29705      2.10636      2.09489         0.008263      0.008513     -0.036477
O	      4.43422      4.31965      2.04372        -0.022927      0.003485     -0.023161
O	      4.30440      2.14429      4.14360         0.040525      0.081326     -0.017825
O	      6.55217      4.52127      4.16956        -0.101354     -0.007089     -0.033255
O	      6.52574      2.16208      6.23679        -0.035628      0.009327      0.015097
O	      8.71226      4.38753      6.25790        -0.022634     -0.012695      0.094125
O	      2.11327      4.33674      4.13399         0.047890     -0.001937     -0.024251
O	      4.42002      6.71128      4.16439        -0.045882     -0.013733     -0.022816
O	      4.28124      4.48098      6.37266         0.036067     -0.064210      0.314922
O	      6.50295      6.67621      6.38012         0.002410     -0.003916     -0.056279
O	      6.27343      4.44045      8.28908        -0.107064     -0.049603      0.022934
O	      8.52988      6.83622      8.33605         0.001394      0.151885     -0.037241
O	      2.09010      6.78752      6.22753         0.054797     -0.004740      0.036198
O	      4.24299      9.00352      6.21588         0.039265     -0.019690      0.011259
O	      4.39536      6.65676      8.28983         0.044608      0.008185     -0.033273
O	      6.57490      8.95243      8.33082         0.006436      0.071469      0.014926
O	      6.44887      6.57576     10.24202         0.052815     -0.053426     -0.028258
O	      8.70928      8.98538     10.30422        -0.052959     -0.043697      0.025941
