# total energy = -249.03856720 eV
 
CRYSTAL
PRIMVEC
0.011089 6.441340 6.517948 
6.420496 -0.027295 6.556460 
4.266937 4.306223 -0.004976 
PRIMCOORD
36 1
Li	      2.16924      2.12523      0.14563        -0.038734     -0.052215      0.177357
Li	      6.28465      4.30753      2.19185         0.015470      0.129844     -0.061838
Li	      4.13570      2.25746      2.19825        -0.023523     -0.015687      0.091561
Li	      4.28679      6.29506      2.37137         0.022035      0.002911      0.007117
Li	      2.31233      4.35715      2.28286        -0.124081     -0.140135      0.045614
Li	      2.07929      2.24152      4.24416         0.040033      0.024963     -0.113622
Li	      4.09782      4.34521      4.15678         0.006037     -0.064739      0.026584
Li	      2.26195      6.33651      4.29159        -0.080436     -0.040255      0.004910
Li	      2.18808      4.28591      6.33956         0.025147      0.008688     -0.111064
Sc	      4.33698      4.26902      0.16433         0.075295     -0.055483     -0.119839
Sc	      4.23819      0.02656      4.30090         0.032980      0.080629      0.006090
Sc	      6.42984      4.18941      6.64966         0.088568      0.008712      0.015232
Sc	      0.12015      4.18448      4.30657         0.103718      0.077720     -0.026623
Sc	      4.14665      6.43070      6.53152        -0.062829      0.041286      0.038105
Sc	      6.55455      6.49066      8.65913        -0.084651      0.007697      0.043255
Ti	      6.39463      2.20519      4.31806        -0.133740      0.057580     -0.069871
Ni	      4.26442      2.16534      6.53616         0.004013     -0.022302     -0.053020
Ni	      8.55583      8.57913      8.70944         0.027154      0.061445      0.006607
O	      2.11472      2.15484      2.22015        -0.000117     -0.073077     -0.035627
O	      4.27231      4.30140      2.11909        -0.003925     -0.015183      0.076542
O	      4.44924      2.09444      4.40548         0.171896      0.017983     -0.043220
O	      6.44848      4.11319      4.46035        -0.025488     -0.163224      0.011416
O	      6.40958      2.09802      6.36297         0.056843      0.014952     -0.094849
O	      8.54408      4.34390      6.43755        -0.004182     -0.030962     -0.057712
O	      2.09751      4.25975      4.27717        -0.082975      0.166855      0.206424
O	      4.23863      6.49499      4.45513         0.030492     -0.100665     -0.032760
O	      4.31388      4.28272      6.62072         0.028478      0.088118     -0.030106
O	      6.39072      6.33282      6.60035        -0.044124      0.007250      0.042210
O	      6.39920      4.35970      8.72882        -0.022102      0.052504     -0.050730
O	      8.56553      6.52133      8.61456         0.046200     -0.073299      0.100245
O	      2.13015      6.43563      6.59002         0.015449     -0.103739     -0.109539
O	      4.26881      8.59825      6.41632         0.012355     -0.025218      0.009917
O	      4.34152      6.42249      8.71859         0.040760     -0.024369     -0.027419
O	      6.45090      8.55325      8.92615        -0.021372      0.000165      0.153504
O	      6.39180      6.46431     10.85827        -0.041429      0.101265     -0.016491
O	      8.46104      8.64650     10.81957        -0.049217      0.049986     -0.008362
