# total energy = -248.47448649 eV
 
CRYSTAL
PRIMVEC
0.008547 6.546902 6.382503 
6.355156 0.020221 6.370345 
4.233518 4.353369 0.016971 
PRIMCOORD
36 1
Li	     10.37465      4.41798      6.58076         0.088339      0.011191     -0.003844
Li	      2.15928      2.27037      0.18654        -0.025472      0.030496     -0.037008
Li	      2.16412      0.12502      2.12972        -0.015426      0.005793     -0.031650
Li	      4.20347      8.60875      8.38160        -0.035297     -0.086470      0.041469
Li	      8.40231      4.43815      4.29912         0.044483      0.022308     -0.012243
Li	      2.27631      4.32951      1.99896        -0.083025     -0.006313      0.102075
Li	      8.54415      6.40896      6.40331        -0.039934     -0.042183      0.018312
Li	      4.19101      6.56959      6.54214         0.004432      0.012014     -0.083656
Li	      4.21183      4.47719      8.50531        -0.002369     -0.014342      0.066862
Sc	      6.28259      2.22275      4.25361        -0.019198     -0.058596      0.035253
Sc	      2.22007      2.15082      4.14125        -0.028919      0.076412     -0.008438
Sc	      6.45371      4.29039      6.45467        -0.010790     -0.000404      0.048506
Sc	     10.49234      8.78901     10.76555         0.050389      0.015683     -0.051357
Sc	      2.21256      4.41563      6.44242        -0.071475      0.001959     -0.062780
Sc	      6.19353      6.52227      8.45912         0.107277     -0.053117     -0.001670
V	      8.50354      6.59386     10.61481        -0.062925     -0.114109      0.078660
Co	      4.23033      6.51780      2.14017         0.126878      0.028620     -0.123604
Cu	      4.26676      4.36695      4.20632        -0.010509     -0.099725     -0.052488
O	      1.95189      2.18101      2.15020        -0.067183      0.012274      0.068822
O	      4.26007      4.62324      2.26187         0.065597      0.060337     -0.052575
O	      4.23711      2.14378      4.14368        -0.046708     -0.182533      0.054891
O	      6.38524      4.34209      4.30770         0.063318      0.074867     -0.083497
O	      6.32330      2.20767      6.43732        -0.010230     -0.001324      0.029197
O	      8.42847      4.36203      6.37777        -0.007687      0.021345     -0.037043
O	      2.05718      4.36676      4.29613        -0.037253      0.075126     -0.008624
O	      4.19516      6.65782      4.09841         0.083820      0.182427     -0.028522
O	      4.25617      4.37299      6.21569         0.027082     -0.019521      0.101075
O	      6.37742      6.54814      6.37106        -0.000904      0.005821     -0.010832
O	      6.30318      4.36847      8.52933        -0.034850     -0.045768     -0.011046
O	      8.57738      6.50994      8.72513         0.011091     -0.034223     -0.129395
O	      2.23035      6.45915      6.07721        -0.031176      0.017770      0.121539
O	      4.31502      8.74823      6.36711         0.011464     -0.015328      0.071980
O	      4.26256      6.50827      8.50588        -0.019297      0.005171      0.007613
O	      6.38838      8.62271      8.52301        -0.001031      0.002916     -0.000638
O	      6.48687      6.56811     10.55927        -0.060739     -0.018057     -0.006946
O	      8.43130      8.54629     10.64805         0.038230      0.129483     -0.008400
