# total energy = -249.66616421 eV
 
CRYSTAL
PRIMVEC
0.016190 6.475697 6.392434 
6.466161 0.042916 6.365691 
4.336670 4.324973 0.003051 
PRIMCOORD
36 1
Li	      2.00997      0.19750      2.13109        -0.057274      0.056635      0.062567
Li	      4.46637      6.38555      2.38920         0.053722     -0.033771     -0.056579
Li	      6.42266      6.56437      4.29109         0.005209     -0.018746      0.033068
Li	      4.24131      4.40997      4.27289         0.007514      0.013809      0.015568
Li	      4.14161      2.39786      6.29419         0.004025     -0.033619     -0.063271
Li	      4.38174      8.49845      4.21547        -0.026584      0.023731      0.001519
Li	      2.30562      6.45948      4.24727        -0.016354      0.039085     -0.007388
Li	      2.35872      4.18794      6.21947        -0.016832      0.021387      0.017772
Li	      4.33675      4.29509      8.42401        -0.023139     -0.045568      0.063805
Sc	      0.12788      6.43264      6.42626         0.000153      0.023475     -0.068943
Sc	      4.30524      6.50335     10.58374         0.083635     -0.009286      0.036919
Sc	      6.47611      8.71025     10.53383         0.024270     -0.089271      0.017070
Sc	      2.20714      4.25944      2.33612        -0.009970      0.074874     -0.015340
Sc	      6.39846      4.30542      6.41682        -0.017296     -0.050152      0.042275
Sc	      4.25374      6.50849      6.25561        -0.057975      0.000330     -0.009159
V	      6.57979      6.52466      8.47337         0.177569     -0.049340      0.078110
Co	      8.62522      2.21693      6.37490        -0.018929     -0.022370     -0.029881
Ni	      4.30252      2.18507      2.13172        -0.001098      0.021814      0.017490
O	      2.20285      2.18972      1.98002        -0.054888      0.013267     -0.042085
O	      4.29728      4.30319      2.06797         0.020776      0.082546      0.033180
O	      4.37999      2.10574      4.24022         0.015689      0.024919      0.062133
O	      6.56263      4.29644      4.29020        -0.011942      0.050873     -0.041119
O	      6.60487      2.17650      6.33661         0.079500      0.035454     -0.010391
O	      8.66403      4.22349      6.36129        -0.019256     -0.051747     -0.012142
O	      2.17880      4.29166      4.26504         0.004571     -0.004488     -0.032983
O	      4.33878      6.49525      4.30613         0.026013     -0.021975      0.071347
O	      4.39007      4.39501      6.40451         0.018853     -0.022922      0.005551
O	      6.44074      6.45289      6.49910         0.000953     -0.015480     -0.023564
O	      6.53636      4.48580      8.48126        -0.016264      0.027374     -0.019934
O	      8.39902      6.48013      8.50038        -0.091112      0.028644     -0.017680
O	      2.16367      6.67169      6.42114         0.028185      0.010695      0.028510
O	      4.15012      8.66609      6.43080        -0.051746     -0.019942     -0.041640
O	      4.55671      6.52007      8.51734        -0.011810     -0.062255     -0.022965
O	      6.46271      8.51746      8.48480         0.041846     -0.033819     -0.034472
O	      6.44385      6.57007     10.59575        -0.050753      0.014404     -0.068200
O	      8.59172      8.72757     10.76559        -0.039263      0.021435      0.030856
