# total energy = -250.86631401 eV
 
CRYSTAL
PRIMVEC
0.025042 6.383966 6.377771 
6.379360 0.048875 6.354481 
4.302259 4.290384 -0.017231 
PRIMCOORD
36 1
Li	      8.47241      2.25632      6.29334        -0.004415      0.012425      0.012990
Li	      8.45075      4.31866      4.32091         0.015783     -0.014253      0.015844
Li	      6.37812      2.27951      4.30543        -0.011167      0.015061     -0.061452
Li	      6.34779      2.21949      8.39482         0.020051      0.022456      0.016958
Li	      2.27427      2.11126      4.32276        -0.013761      0.003405     -0.026403
Li	      4.33053      4.17352      4.35498         0.013249      0.015178      0.004142
Li	      4.24293      2.28694      6.30490        -0.017529      0.008665      0.043570
Li	      6.44072      8.53830      6.32411        -0.037779      0.011444      0.033926
Li	      8.60957      8.48237      8.41311        -0.046176     -0.053925     -0.042168
Sc	      6.31692      0.24542      6.31114         0.053277      0.050547      0.044018
Sc	      6.43583      4.29250      2.30754        -0.078610      0.028836     -0.122426
Sc	      2.18439      4.16931      2.10885        -0.173093     -0.012013      0.069345
Sc	     10.63127      8.59528     10.60082         0.111936     -0.096471      0.133092
Sc	      8.55676      6.49607     10.57411         0.022388     -0.042958     -0.101345
Sc	      4.34173      6.31138      6.35371         0.047022     -0.044097     -0.202642
V	      6.39622      6.49472      8.46341         0.217460     -0.027104     -0.074296
Co	      4.28330      2.14916      2.20173         0.095375     -0.043938      0.930227
Co	      6.43367      4.26789      6.30285        -0.092899     -0.024203     -0.009538
O	      2.26209      2.09774      2.16495        -0.492448     -0.042196     -0.312609
O	      4.30867      4.32742      2.02019         0.029737     -0.176474      0.076851
O	      4.28106      2.17773      4.01911         0.019578      0.001576     -0.210842
O	      6.43132      4.29666      4.32277         0.054600     -0.002072     -0.076372
O	      6.40381      2.27232      6.36041        -0.023585     -0.010924     -0.054383
O	      8.51114      4.32147      6.36916         0.014507      0.019469     -0.059490
O	      2.07820      4.31826      4.17500         0.111691     -0.054934      0.101010
O	      4.23904      6.47798      4.27339        -0.050338      0.047500      0.053265
O	      4.47647      4.28867      6.35029         0.033202     -0.011499     -0.008433
O	      6.41810      6.27451      6.39920        -0.006813      0.009398     -0.054616
O	      6.44418      4.39084      8.38793        -0.024650     -0.041560      0.136274
O	      8.40185      6.39637      8.50094         0.043095     -0.020757     -0.012206
O	      2.14791      6.37207      6.39815         0.009074      0.008157     -0.009747
O	      4.33007      8.56712      6.37707        -0.049688     -0.021022     -0.197613
O	      4.31207      6.40363      8.44261        -0.073107      0.157828      0.131383
O	      6.32057      8.49214      8.47196         0.522572      0.174264     -0.257680
O	      6.43364      6.42128     10.60835        -0.166958      0.085219      0.070275
O	      8.62727      8.52477     10.53744        -0.071580      0.068972      0.021090
