# total energy = -257.32080480 eV
 
CRYSTAL
PRIMVEC
0.047841 6.514544 6.362773 
6.372907 0.031617 6.379192 
4.272615 4.378046 -0.003181 
PRIMCOORD
36 1
Li	      0.22028      6.55713      6.42532         0.076567     -0.004414     -0.065722
Li	      2.05735      2.11114      0.06584        -0.000822      0.020157     -0.046054
Li	      2.01047      0.11522      2.02781         0.022772     -0.007638     -0.004019
Li	      8.57792      4.52575      8.53336        -0.024866      0.014297      0.006781
Li	      2.09340      2.22306      4.17172        -0.003362      0.032686     -0.010004
Li	      4.25175      4.42632      4.16899         0.030462     -0.008036      0.012159
Li	      8.56555      6.53979      6.48370         0.004195     -0.047715     -0.008786
Li	      2.23778      6.43369      4.17334        -0.008226     -0.052959      0.034296
Li	      8.57268      8.57951      8.50018         0.004296     -0.047987      0.022603
Sc	      4.07155      2.39082      2.11856         0.017508      0.001426      0.004470
Sc	      4.18698      0.05342      4.18644         0.027017      0.020897     -0.032676
Sc	      6.47145      8.68456     10.60863        -0.021517     -0.006987     -0.004360
Sc	      6.44128      4.37606     10.55475        -0.005078     -0.000381     -0.020180
Sc	      2.26724      4.32819      6.35585         0.042689      0.000347     -0.021604
Sc	      4.25606      6.52768      6.36511        -0.028272     -0.053659      0.015496
V	      6.45484      4.34428      6.41753        -0.152826     -0.007641      0.090622
Cr	      4.26718      6.47779      2.12305         0.027491      0.081195     -0.039271
Co	      6.56941      6.56585      8.50300        -0.004885      0.004996     -0.005686
O	      2.06110      2.15862      2.10142        -0.013716      0.011974      0.009721
O	      4.24037      4.44862      2.07977         0.025453     -0.009989      0.015223
O	      4.31548      2.13851      4.17768        -0.021183      0.028613     -0.009845
O	      6.39789      4.28243      4.41043        -0.018781      0.037180     -0.038323
O	      6.36734      2.32946      6.43271         0.012942     -0.057956     -0.032828
O	      8.24622      4.42096      6.33890         0.129248      0.021580      0.006908
O	      2.10032      4.31510      4.32818         0.003044      0.032609     -0.011306
O	      4.28651      6.61808      4.19587         0.012445     -0.018984     -0.017134
O	      4.40777      4.42753      6.39005        -0.039127      0.022726     -0.001109
O	      6.39701      6.44834      6.42440         0.008373      0.023914      0.032578
O	      6.38557      4.28468      8.43548         0.013685      0.023097      0.077054
O	      8.60347      6.55797      8.50546        -0.064114     -0.028542      0.030370
O	      2.24373      6.38240      6.37658         0.000715      0.005316     -0.030612
O	      4.36888      8.65345      6.34310         0.000794      0.002175      0.024856
O	      4.33248      6.69224      8.47528        -0.001675     -0.018327      0.030084
O	      6.39275      8.70726      8.50562        -0.014791     -0.018585     -0.012874
O	      6.36984      6.54538     10.65263        -0.024018      0.008976     -0.017453
O	      8.56101      8.85122     10.60422        -0.012438     -0.004359      0.016626
