# total energy = -253.66824271 eV
 
CRYSTAL
PRIMVEC
0.000393 6.500739 6.355490 
6.314456 -0.019804 6.375798 
4.221144 4.358641 -0.024693 
PRIMCOORD
36 1
Li	      8.34838      2.23616      6.36972         0.042174      0.046482      0.047133
Li	      2.23913      0.07704      2.23804         0.005706     -0.012133     -0.056115
Li	      4.08349      2.09800      2.26469         0.001855     -0.014906     -0.088762
Li	      4.13026      6.57045     10.44403         0.045288      0.101352      0.041115
Li	      6.38559      2.23297      4.28070         0.040824     -0.016074     -0.002086
Li	      2.21544      2.06027      4.13072        -0.053059     -0.021941      0.078107
Li	      4.22135      2.13216      6.27892        -0.030919     -0.042182     -0.059295
Li	      8.42995      6.58764     10.54101        -0.008517      0.002563      0.061982
Li	      8.37704      8.75573      8.58786        -0.030152      0.171204     -0.067314
Sc	      6.30078      0.09980      6.35694         0.021180     -0.035818     -0.005191
Sc	      4.27658      4.16062      4.12019         0.058439      0.041765     -0.014136
Sc	      6.39849      4.24696      6.30227        -0.116320      0.085089      0.035917
Sc	     10.35187      8.61360     10.53251         0.169277     -0.039443     -0.003872
Sc	      4.15491      6.52422      6.40282         0.130618      0.140647     -0.094740
Sc	      6.38392      6.61540      8.57775        -0.050921     -0.026885     -0.012056
V	      2.12027      4.33474      6.34484         0.066152     -0.342407      0.442861
Cr	      2.10870      4.30941      2.13489        -0.067958      0.004532      0.008648
Cu	      4.20575      6.49183      2.14382        -0.083980      0.007904      0.054042
O	      1.93780      2.31759      2.13050         0.204147     -0.173424     -0.004043
O	      4.09172      4.19813      2.05796         0.119979     -0.157391     -0.008092
O	      4.25213      2.21429      4.21723         0.041253     -0.082965      0.076824
O	      6.30273      4.33986      4.29655         0.174629     -0.026018     -0.053939
O	      6.32826      2.16943      6.43871        -0.047439      0.014974     -0.115478
O	      8.43159      4.33157      6.49865         0.024576     -0.044583      0.024972
O	      2.12710      4.29693      4.36395        -0.061959     -0.002929     -0.117593
O	      4.18823      6.52100      4.24156        -0.022236     -0.012167      0.087407
O	      4.18238      4.40587      6.28173         0.078692     -0.056335      0.012887
O	      6.28775      6.57543      6.40363         0.089063     -0.053923     -0.040856
O	      6.39828      4.50588      8.46599        -0.059791     -0.006723     -0.016199
O	      8.49348      6.34466      8.52034        -0.086018     -0.019435      0.000502
O	      2.08293      6.30917      6.39217        -0.069705      0.152766     -0.029281
O	      4.35314      8.68088      6.25686        -0.178512     -0.000869     -0.021315
O	      4.27891      6.54583      8.41405        -0.053172      0.033407      0.041213
O	      6.41150      8.61938      8.17096         0.061145      0.342173     -0.280244
O	      6.30852      6.41046     10.63962        -0.000383      0.027059      0.027241
O	      8.44146      8.61975     10.57841        -0.353955      0.016633      0.049756
