# total energy = -90.44828059 eV
 
CRYSTAL
PRIMVEC
0.000038 2.093398 -2.093400 
0.000042 2.093406 2.093407 
16.291153 0.000233 0.000046 
PRIMCOORD
16 1
Li	      2.27313      2.09372     -0.00259         0.005796     -0.000061      0.002852
Li	      4.01359      0.00195     -0.00144        -0.031947     -0.001653     -0.000196
Li	      8.16804      0.00123     -0.00049        -0.057464     -0.000706     -0.000531
Li	     12.06427      4.18483     -0.00142         0.030816      0.001171     -0.000313
Mn	      0.12794      2.09206      2.09083         0.186658      0.001543      0.001715
Mn	      6.12100      2.09530     -0.00069        -0.036958     -0.000545     -0.001318
Ni	     10.11439      2.09283     -0.00088         0.047851      0.000282     -0.001696
Ni	     14.12646      2.09157     -0.00233        -0.018004      0.001473     -0.000080
O	     14.41875      2.09160      2.09092         0.036149      0.002805      0.002732
O	     16.27537      2.09216     -0.00259         0.001113     -0.000443     -0.000620
O	     10.10204      2.09282      2.09249        -0.001875     -0.000115     -0.001767
O	     12.17509      2.09160     -0.00145        -0.128155     -0.000221     -0.001000
O	      6.12085      0.00189     -0.00070        -0.000315     -0.001427      0.000136
O	      8.00276      2.09476     -0.00057        -0.003798     -0.001013     -0.000542
O	      1.94822      2.09289      2.09088        -0.087896      0.000668      0.000654
O	      4.26402      2.09536     -0.00105         0.058028     -0.001758     -0.000025
