# total energy = -257.86764668 eV
 
CRYSTAL
PRIMVEC
0.036123 6.422057 6.434836 
6.468722 0.024648 6.446041 
4.322309 4.298671 0.006792 
PRIMCOORD
36 1
Li	      6.39953      0.11243      6.44152         0.003542      0.051225      0.028967
Li	      8.55508      2.24497      6.38688         0.024633     -0.040831      0.037253
Li	      6.51902      2.11454      4.52127         0.046821     -0.002255     -0.057753
Li	      6.50814      2.16895      8.42474         0.034229      0.009481      0.055537
Li	      8.61464      4.30766      8.53581        -0.044610     -0.014414      0.024324
Li	      4.52430      2.04955      6.42747        -0.021480      0.007913      0.016790
Li	      4.35986      8.56442      4.53502        -0.017476      0.040523      0.000735
Li	      6.31942      8.61370      6.37839        -0.013540      0.019256      0.037600
Li	      4.33347      6.57518      6.32044        -0.019449     -0.011021      0.054038
Sc	      2.14715      6.46512      8.44246        -0.051469      0.008140     -0.014889
Sc	      4.30446      8.62484      8.41429        -0.031084      0.040730      0.079719
Sc	      4.29887      4.25073      4.40422        -0.048426     -0.004143     -0.016249
Sc	      2.17375      6.46081      4.42919        -0.039210     -0.016848     -0.061759
Sc	      4.37630      4.25268      8.52183         0.046260     -0.053701     -0.044981
Sc	      6.54646      6.42672      8.48306         0.068881     -0.023445      0.008571
V	      6.42379      6.48233      4.36701        -0.038401      0.016064     -0.017993
Cr	      6.53270      4.21369      6.42588         0.041779     -0.004422      0.009144
Fe	      8.79535     10.68004     10.87492        -0.060674      0.055783     -0.156482
O	      2.20068      2.10379      2.31272        -0.010258      0.013326     -0.028287
O	      4.41128      4.23681      2.25453        -0.028597      0.039329     -0.041395
O	      4.18078      2.10347      4.27330         0.013899      0.001473     -0.008595
O	      6.50156      4.34035      4.33365         0.031532     -0.043738      0.020658
O	      6.49195      2.26105      6.44682         0.064860     -0.023889      0.016463
O	      8.57343      4.30271      6.33679        -0.040714      0.023429      0.157399
O	      2.23149      4.31256      4.35717        -0.005766      0.027923      0.005552
O	      4.35253      6.37339      4.33539         0.020334      0.022137      0.010603
O	      4.48225      4.26006      6.44871         0.002870     -0.013083      0.015295
O	      6.48058      6.34500      6.38222        -0.029517     -0.016032      0.003241
O	      6.45686      4.36679      8.43398         0.026067     -0.023743      0.022019
O	      8.56751      6.51443      8.70636         0.033953     -0.034293     -0.065247
O	      2.18698      6.46363      6.44993        -0.010735     -0.013767     -0.003545
O	      4.33175      8.56366      6.49806        -0.036779      0.036144     -0.044485
O	      4.34451      6.43256      8.69095        -0.004639     -0.004202     -0.022569
O	      6.51725      8.59346      8.50499         0.007390      0.009225     -0.014092
O	      6.46261      6.47139     10.66314         0.085566     -0.008254     -0.009846
O	      8.69001      8.63861     10.65756         0.000209     -0.070020      0.004263
