# total energy = -254.32253429 eV
 
CRYSTAL
PRIMVEC
0.017393 6.491842 6.359381 
6.477064 0.001081 6.375971 
4.320400 4.341234 -0.001468 
PRIMCOORD
36 1
Li	     10.74139      4.31692      6.34540         0.007041      0.016833      0.005293
Li	      8.71609      8.69131     12.69506        -0.036623     -0.011651      0.003322
Li	      4.38710      0.14590      4.28046        -0.006023     -0.017285      0.001209
Li	      6.35813      8.49582     10.53814        -0.027212     -0.075342      0.018825
Li	      4.32794      4.18774      4.36349         0.000130      0.019163     -0.022113
Li	      4.23644      2.19953      6.18454         0.017810      0.026062      0.008815
Li	      6.50194      8.53571      6.40629         0.013722     -0.024784      0.007030
Li	      4.39688      6.52853      6.47110        -0.014443      0.010944     -0.033755
Li	      6.32400      6.64455      8.49128         0.014783     -0.056116      0.037333
Sc	      2.16726      6.46344      8.42998        -0.005489     -0.031259     -0.012323
Sc	      8.70044      4.34104      8.39336         0.008203      0.077592      0.019164
Sc	      6.48214      4.42028      6.22786        -0.012347     -0.030776      0.006725
Sc	      4.29297      8.73842      4.46017        -0.002488     -0.000768     -0.026413
Sc	      2.14842      6.49063      4.43137         0.063918     -0.001569     -0.007143
Sc	      4.27380      4.34926      8.44224        -0.023664     -0.018895      0.033245
V	      6.47026      2.13972      8.40074         0.036087      0.014195      0.097347
Cr	      2.21444      2.20130      4.25831        -0.055709      0.013949      0.017739
Ni	      4.42168      8.53767      8.44466        -0.081350      0.108907     -0.004120
O	      2.07791      2.18281      2.18966         0.032788      0.031037      0.018473
O	      4.31581      4.48845      2.10191        -0.023290     -0.031969     -0.041426
O	      4.20495      2.19362      4.10261        -0.022249     -0.011542      0.154821
O	      6.44761      4.51185      4.20088         0.004318     -0.014631      0.013015
O	      6.51412      2.22331      6.62033         0.019257     -0.004851     -0.146251
O	      8.57491      4.33468      6.42122         0.024498      0.041839     -0.042721
O	      2.12231      4.30047      4.20773         0.025362     -0.033312     -0.016082
O	      4.39004      6.58585      4.05666         0.037579      0.021195     -0.003780
O	      4.42811      4.27486      6.43069        -0.036558     -0.004425     -0.020642
O	      6.50413      6.46711      6.24866        -0.039151     -0.011799     -0.018958
O	      6.49891      4.22589      8.48335         0.023399      0.009572     -0.012447
O	      8.81981      6.46756      8.57917        -0.021218      0.014836     -0.017768
O	      2.19517      6.52492      6.40295         0.022977     -0.010091      0.035071
O	      4.32685      8.65734      6.43434         0.006036      0.029656     -0.126170
O	      4.27742      6.43496      8.49060         0.001427     -0.073951      0.035237
O	      6.51044      8.71223      8.51051         0.078452     -0.016440     -0.002510
O	      6.58514      6.43481     10.61947        -0.017335      0.004540      0.017491
O	      8.72634      8.54743     10.58228        -0.012638      0.041136      0.024468
