# total energy = -260.75150970 eV
 
CRYSTAL
PRIMVEC
0.053032 6.435042 6.436214 
6.538005 0.008250 6.481058 
4.348733 4.310086 0.015544 
PRIMCOORD
36 1
Li	      4.24587      4.22456      0.14420        -0.082897     -0.096950      0.050421
Li	      8.64124      2.31669      6.54974        -0.030627     -0.027371     -0.045929
Li	      4.22704      2.29351      2.23442         0.032804     -0.033362     -0.030642
Li	      6.41382      2.19243      4.49362         0.013966     -0.037075      0.025741
Li	      2.31274      4.15848      2.07349         0.006901      0.103179     -0.008663
Li	      2.37019      2.30997      4.20196         0.011761      0.037101      0.001186
Li	      4.27476      4.08323      4.29584        -0.019053      0.022961     -0.064976
Li	      4.46249      2.13392      6.31132         0.002495     -0.034539      0.009692
Li	      4.44179      8.60169      4.41165        -0.007251      0.001816      0.006521
Sc	      6.37816      4.34486      2.27530         0.000758      0.046952      0.016607
Sc	      4.39050      0.11659      4.42428         0.040704      0.020252      0.070721
Sc	      2.13846      6.41309      4.37327         0.043316     -0.003124     -0.044271
Sc	      4.43381      6.53455      6.29788        -0.039932      0.068228     -0.016982
Sc	      8.76041      8.58306      8.66544         0.131739      0.014593      0.090777
Sc	      6.61427      6.42941      8.60780         0.039936     -0.031885      0.047905
V	      0.05902      2.14747      2.12631        -0.082892     -0.136820      0.067706
Cr	      6.56102      4.25080      6.39030         0.063874     -0.008588      0.055391
Cr	      2.23578      4.26069      6.39261        -0.013399      0.013476     -0.085195
O	      2.03827      2.10041      2.15967         0.070034     -0.122260      0.027428
O	      4.40116      4.36232      2.14720        -0.003259      0.008725      0.030091
O	      4.39605      2.09209      4.28600        -0.032520     -0.066395     -0.007687
O	      6.61327      4.25968      4.35479        -0.049480     -0.023109     -0.021455
O	      6.51821      2.27806      6.63070        -0.089815      0.154194     -0.094859
O	      8.57011      4.31204      6.45855        -0.002867     -0.015657     -0.075822
O	      2.20995      4.33968      4.42991        -0.000573      0.041210      0.064258
O	      4.25529      6.50606      4.24488        -0.006533      0.043480      0.059954
O	      4.42304      4.34621      6.47843        -0.028579      0.022510     -0.013102
O	      6.51532      6.45680      6.49018         0.055613      0.042442     -0.018621
O	      6.51321      4.32627      8.45087         0.028957      0.054618     -0.030714
O	      8.74168      6.47780      8.71746        -0.014455      0.096311      0.003323
O	      2.32046      6.31983      6.48022        -0.025176     -0.063628      0.018208
O	      4.58553      8.55062      6.47461         0.009465     -0.053534      0.012340
O	      4.42838      6.38438      8.59168         0.016167     -0.046377      0.002734
O	      6.67769      8.56219      8.46138         0.000087      0.015637     -0.018804
O	      6.57671      6.43335     10.67373         0.017861     -0.001510     -0.045845
O	      8.76067      8.58130     10.71242        -0.057133     -0.005502     -0.037435
