# total energy = -246.12405795 eV
 
CRYSTAL
PRIMVEC
0.074453 6.375325 6.549745 
6.525543 0.014592 6.611032 
4.361385 4.300496 -0.001413 
PRIMCOORD
36 1
Li	      0.36871      6.40908      6.39323        -0.058682      0.028535     -0.062593
Li	      2.24154      8.26739      6.45825         0.005561      0.080894     -0.023183
Li	      2.28552      6.36626      8.44498         0.093763      0.023066     -0.019278
Li	     10.92281      8.57608     10.98413         0.018351     -0.035771     -0.055971
Li	      2.17364      6.45258      4.62128         0.002636      0.012083     -0.082123
Li	      2.30706      4.53727      6.47736        -0.019738     -0.102866     -0.022207
Li	      4.10341      6.32406      6.52649         0.090880      0.035989     -0.034644
Li	      8.75827      8.44626      8.87220         0.043148     -0.064437      0.071479
Li	      6.60508      6.46478      8.87740        -0.018815      0.038791      0.025597
Sc	      8.89896     10.58367     10.97650        -0.098702      0.081165     -0.092976
Sc	      4.41266      6.36013      2.20649         0.061370     -0.003124     -0.024756
Sc	      2.18650      4.28789      2.23501        -0.065088     -0.065108     -0.009073
Sc	      6.49435      6.47283      4.45085         0.006430      0.005686     -0.028356
Sc	      4.35524      2.20364      6.61433         0.007964     -0.031556      0.041639
Sc	      6.48669      4.31010      6.63894         0.007039      0.005533      0.099059
V	      4.59367      8.49000      8.51540        -0.161962     -0.144244     -0.159230
Cu	      6.71455      8.48633     10.95384         0.004763      0.040929     -0.021198
Ni	      4.36823      4.27674      4.41767        -0.018105     -0.005343      0.013896
O	      2.23271      6.40752      6.55262        -0.009543      0.012240     -0.053965
O	      2.22566      2.18004      2.29974        -0.067753      0.020345      0.038079
O	      4.31132      4.13071      2.29688        -0.030516      0.020888     -0.016372
O	      4.36476      2.15722      4.41957        -0.070975     -0.069479      0.045662
O	      6.56930      4.23679      4.50041         0.037981      0.055055      0.016162
O	      6.47457      2.19120      6.73934        -0.036689      0.020902      0.145747
O	      8.63422      4.36814      6.59413         0.006689     -0.013342      0.012301
O	      2.23194      4.21084      4.31270        -0.068317     -0.014078     -0.020240
O	      4.47434      6.34306      4.28686         0.012306      0.098430      0.004779
O	      4.41969      4.26299      6.54399         0.017527     -0.039296      0.065075
O	      6.64401      6.37514      6.51191         0.003397      0.005361     -0.008915
O	      6.62706      4.18697      8.74260        -0.007886      0.009010      0.040850
O	      8.83144      6.37061      8.68382        -0.038596      0.002372      0.055956
O	      4.37147      8.56045      6.81435        -0.001237      0.016950      0.002643
O	      4.39077      6.70906      8.84295         0.028046      0.037705      0.076656
O	      6.31946      8.57520      8.67949         0.209553     -0.004011     -0.030869
O	      6.54261      6.49477     10.94342         0.042418     -0.040804     -0.015415
O	      8.71561      8.59864     10.86591         0.072781     -0.018470      0.025786
