# total energy = -245.94941525 eV
 
CRYSTAL
PRIMVEC
0.039285 6.561407 6.233561 
6.546002 -0.008945 6.281554 
4.363309 4.406611 -0.004989 
PRIMCOORD
36 1
Li	      4.40945      4.41905      0.09390         0.006603      0.000997     -0.021968
Li	      8.59503      2.16988      6.37485        -0.086780     -0.018914     -0.023588
Li	      4.31480      8.84289      8.15618        -0.140252      0.113478      0.085656
Li	      8.72008      4.36725      4.24759        -0.013146     -0.022923     -0.056822
Li	      6.60092      2.19043      4.24847         0.041022     -0.017316     -0.112518
Li	      6.59926      2.14837      8.20516         0.001875     -0.012268      0.023739
Li	      6.65826      4.23798      6.30906        -0.012490     -0.027592     -0.042752
Li	      6.39231      8.79393      6.37004         0.001500      0.000314      0.049200
Li	      4.37532      6.76391      6.31858        -0.024592      0.028042      0.054883
Sc	      8.71160      4.27975      8.22794        -0.011071      0.113858      0.023015
Sc	      6.56758      6.53845      4.26370        -0.007833      0.036263     -0.028238
Sc	      4.42538      4.38602      4.12152         0.007338     -0.000933      0.076496
Sc	      4.58791      2.10501      6.26828        -0.030483      0.031509      0.013380
Sc	      4.33286      8.84259      4.30570         0.013185     -0.042850     -0.000214
Sc	      2.17204      6.62788      4.27707         0.054637     -0.016686     -0.041305
V	      4.30831      4.50115      8.24970         0.190450     -0.336865     -0.003507
Cu	      2.06065      0.14432      1.96822         0.094555     -0.074816      0.051040
Cu	      6.59545      6.54248      8.26771        -0.020421      0.010473      0.011992
O	      4.29837      6.24888      8.33334        -0.101078      0.309410     -0.013816
O	      2.14165      2.29253      2.13971        -0.006300      0.200027      0.000977
O	      4.27389      4.37072      2.11920        -0.030265      0.020121     -0.040482
O	      4.28460      2.31559      4.20617         0.011278      0.005089     -0.071363
O	      6.46093      4.49540      3.97081         0.095761     -0.009802      0.136886
O	      6.54855      2.20654      6.20143         0.013903     -0.029924     -0.047712
O	      8.71442      4.46614      6.25509         0.047158     -0.053387     -0.025866
O	      2.18988      4.41080      4.13712         0.018377      0.030231      0.023725
O	      4.38208      6.56141      4.25497        -0.026774      0.015851      0.035424
O	      4.45242      4.29406      6.42352         0.062529     -0.012561     -0.083322
O	      6.63486      6.59971      6.30049         0.000424      0.005185     -0.091540
O	      6.48138      4.43292      8.34995         0.027957      0.011967      0.025978
O	      8.90523      6.61466      8.37391         0.089496     -0.100026      0.010029
O	      2.17361      6.58826      6.28794         0.015197      0.014573     -0.069605
O	      4.41265      8.76339      6.23801        -0.055394      0.037419     -0.013304
O	      6.91032      8.60570      8.34455        -0.204046     -0.189730      0.007891
O	      6.65617      6.48455     10.27298        -0.028641      0.009671      0.140513
O	      8.82959      8.69118     10.22975         0.006323     -0.027886      0.017097
