# total energy = -249.97573770 eV
 
CRYSTAL
PRIMVEC
0.007903 6.512947 6.512176 
6.505097 0.113743 6.407664 
4.403291 4.337156 0.009971 
PRIMCOORD
36 1
Li	      0.03003      6.33753      6.34816         0.009184     -0.003810     -0.022695
Li	      8.84100      8.79223     12.72820         0.003448      0.006060      0.029030
Li	      4.55426      6.41361     10.73240        -0.070259      0.055566     -0.036803
Li	     10.77271      6.71672      8.61838        -0.007348      0.066891      0.020704
Li	     10.67780      8.89329     10.83247         0.088538     -0.065744     -0.001981
Li	      8.73141      6.76141     10.76163         0.050422     -0.019540      0.037664
Li	      4.32121      6.62364      6.47972        -0.010616      0.002892      0.006914
Li	      8.87156      8.76111      8.75436         0.023402      0.009731     -0.038706
Li	      6.54511      6.45258      8.78638         0.011723      0.012539      0.014275
Sc	      2.20413      6.60564      8.53821        -0.065305     -0.026411      0.035813
Sc	      4.36439      8.64022      8.61439         0.040734     -0.000778      0.045306
Sc	      6.72492      8.59810     10.79981        -0.034405      0.071502      0.044992
Sc	      6.47487      6.55161      4.32690         0.005462     -0.014401      0.014352
Sc	      4.33967      4.46134      4.32527         0.030830     -0.043164      0.055863
Sc	      6.53443      8.72959      6.50582         0.058323     -0.095075      0.031146
V	      6.56831      4.39651      6.56424        -0.107243      0.050050     -0.096995
Fe	      8.68781      4.60988      8.54689         0.044835     -0.295523     -0.025942
Cu	      8.76079      6.55537      6.48690         0.022603     -0.065663     -0.054631
O	      2.25615      2.21538      2.20692        -0.019114      0.009991     -0.013357
O	      4.32544      4.31111      2.21060        -0.036072      0.002847     -0.024299
O	      4.35233      2.29223      4.32374        -0.031822     -0.016329     -0.110998
O	      6.45514      4.42974      4.30557        -0.000851     -0.009170      0.019428
O	      6.65136      2.59491      6.36341         0.100425     -0.023605      0.015320
O	      8.56731      4.54867      6.53708         0.074623      0.012833      0.032045
O	      2.25311      4.30135      4.33866        -0.036468      0.049431     -0.070012
O	      4.46228      6.47691      4.27867        -0.058062     -0.030699      0.031672
O	      4.38855      4.25765      6.45633         0.018392      0.185667     -0.020056
O	      6.41977      6.39010      6.40482        -0.124029     -0.009412     -0.054621
O	      6.64370      4.46044      8.45205        -0.012987     -0.043872      0.083839
O	      8.75369      6.50205      8.48456         0.007099      0.253942      0.146473
O	      2.19908      6.40885      6.54987        -0.014660     -0.015324     -0.030707
O	      4.49574      8.68319      6.57033        -0.013974     -0.000680     -0.018327
O	      4.21750      6.62736      8.67330        -0.040045      0.023493     -0.046209
O	      6.47808      8.80431      8.63445         0.009999      0.016220      0.025676
O	      6.51498      6.65824     10.79996         0.069036     -0.036824     -0.011331
O	      8.69349      8.75839     10.76297         0.014182     -0.013629     -0.012841
