# total energy = -251.49303691 eV
 
CRYSTAL
PRIMVEC
-0.002527 6.442458 6.396706 
6.447464 -0.023697 6.417608 
4.277127 4.287779 0.005585 
PRIMCOORD
36 1
Li	      2.16024      0.01838      2.17600        -0.023238      0.037359     -0.031958
Li	      8.49990      4.27609      4.31284         0.002104      0.000497     -0.002349
Li	      6.43009      2.20393      8.55515        -0.017560      0.087964     -0.015486
Li	      2.13078      4.25842      2.15410        -0.015602     -0.040333      0.004649
Li	      6.37680      6.35753      4.39827        -0.013674     -0.035004      0.044425
Li	      6.43089      4.31679      6.38901        -0.013331      0.016783     -0.014584
Li	      2.18632      6.41355      4.24544        -0.001159      0.011437      0.026731
Li	      2.25705      4.19731      6.36386        -0.040123     -0.059491      0.002821
Li	      4.28562      6.36356      6.41502        -0.026870     -0.046272      0.004129
Sc	      4.26996      4.31567      0.05568         0.076672     -0.042188      0.015926
Sc	      4.20111      2.04292      2.19641         0.002704     -0.021023      0.005096
Sc	      6.53640      8.69198     10.64456        -0.012564     -0.048025     -0.062546
Sc	      4.24309      4.43243      4.25932        -0.034980      0.029549      0.002313
Sc	      0.11277      4.17558      4.24693         0.002911      0.011875      0.000527
Sc	      6.44333      6.34685      8.51186         0.002022     -0.003295     -0.011950
V	      2.11504      2.14699      0.05676         0.017927      0.039086     -0.031913
Fe	      8.45907      6.50195      6.41719         0.213827     -0.092232     -0.083262
Ni	      4.30523      4.30501      8.46283        -0.050520      0.032291      0.053405
O	      2.16395      2.15488      1.97832        -0.029883      0.010607      0.089096
O	      4.27514      4.17262      2.13623        -0.002949     -0.004253     -0.016465
O	      4.36156      2.15685      4.32489        -0.010619     -0.001349     -0.013639
O	      6.36566      4.23981      4.25917         0.015614      0.001073     -0.010034
O	      6.50369      2.09442      6.39211        -0.133304      0.013461     -0.033750
O	      8.62685      4.11338      6.40621        -0.015621      0.113284      0.006452
O	      2.14117      4.30945      4.30307         0.012324     -0.015973     -0.009984
O	      4.28506      6.44132      4.30120         0.004014      0.008536     -0.015186
O	      4.26888      4.19886      6.38364         0.031166      0.051319     -0.092062
O	      6.54721      6.37435      6.43799        -0.114507     -0.008014      0.008639
O	      6.37054      4.30071      8.62429         0.146251     -0.041641      0.007246
O	      8.55495      6.47843      8.37787         0.033456     -0.084876      0.108716
O	      2.08217      6.74932      6.38862         0.004793     -0.081834      0.003100
O	      4.15789      8.63873      6.42926         0.053553      0.043884     -0.007147
O	      4.32838      6.42485      8.49695        -0.017630      0.049271      0.023438
O	      6.39615      8.50096      8.56958        -0.035673      0.040722      0.032610
O	      6.49269      6.41735     10.69779        -0.002118      0.020478      0.013730
O	      8.60305      8.60511     10.75833        -0.007413      0.006326     -0.000736
