# total energy = -254.38980225 eV
 
CRYSTAL
PRIMVEC
0.012785 6.496766 6.401589 
6.514380 -0.010186 6.424439 
4.335898 4.339448 0.000234 
PRIMCOORD
36 1
Li	     10.79153      4.31940      6.39212        -0.051859     -0.020770      0.020899
Li	      8.68480      2.21129      6.37919         0.021448      0.023195     -0.023005
Li	      4.20091      2.29794      2.30669         0.003699     -0.019906      0.007615
Li	      4.39195      0.06531      4.38428         0.010591      0.022429     -0.001413
Li	      6.40039      2.13080      4.40238        -0.035094     -0.022714     -0.025294
Li	      2.28659      4.20482      2.16922         0.012991     -0.012391     -0.020300
Li	      2.31386      2.21895      4.16220         0.007938     -0.004122     -0.026189
Li	      4.32063      4.15799      4.17705         0.011056     -0.010083     -0.009302
Li	      2.12053      6.51624      4.34361        -0.009992      0.029343      0.073208
Sc	      6.47183      4.37953      2.25418         0.031529     -0.014311      0.052652
Sc	      4.37505      6.44886      2.15905        -0.003446     -0.091296     -0.025240
Sc	      2.16400      4.34094      6.27862        -0.014818      0.022905      0.041568
Sc	      4.32975      6.49502      6.27842        -0.044776      0.029811      0.008878
Sc	      8.68285      8.66634      8.71253        -0.090781      0.054359      0.079228
Sc	      6.53037      6.50685      8.66171        -0.028615      0.085445      0.048354
V	      4.34410      2.12455      6.28893         0.037222     -0.068008     -0.018808
Fe	      6.63042      4.25714      6.19803        -0.101391      0.063807      0.107807
Fe	      6.51753      4.38533     10.74833         0.024523     -0.041656     -0.034842
O	      2.09674      2.07666      2.13386         0.005241      0.034746     -0.033998
O	      4.41237      4.40776      2.15125        -0.028581     -0.008248     -0.045216
O	      4.34025      2.18303      4.38246        -0.022482     -0.021131     -0.042818
O	      6.53149      4.30719      4.30599        -0.009777      0.012538     -0.144430
O	      6.44929      2.30362      6.45037         0.016623     -0.093290      0.011835
O	      8.54700      4.47349      6.43520         0.174968      0.000100      0.025525
O	      2.04143      4.34091      4.29171         0.083865     -0.029312     -0.061541
O	      4.29448      6.63879      4.24421         0.001938     -0.002883     -0.016690
O	      4.36665      4.30532      6.40589         0.052355      0.007036     -0.000919
O	      6.49264      6.45404      6.44735         0.002398     -0.015424     -0.036538
O	      6.45519      4.34926      8.55464         0.048376      0.014922     -0.016173
O	      8.66280      6.59445      8.42455         0.001495     -0.015497      0.075113
O	      2.29539      6.36829      6.49396        -0.062732      0.040517     -0.105183
O	      4.42264      8.58414      6.33563        -0.014012      0.003593      0.038797
O	      4.38440      6.42217      8.46348         0.021833     -0.009037      0.019958
O	      6.59852      8.62207      8.50990        -0.013314     -0.017203     -0.014759
O	      6.53910      6.39224     10.65479         0.015064      0.057027      0.049198
O	      8.84135      8.65774     10.68604        -0.053482      0.015507      0.042021
