# total energy = -92.82854266 eV
 
CRYSTAL
PRIMVEC
1.994027 4.118546 1.993849 
2.032592 -4.157535 2.032349 
4.045471 -0.000059 -4.045075 
PRIMCOORD
16 1
Li	      4.02707     -4.09195     -0.02291        -0.202738     -0.152866      0.065830
Li	      5.94153     -0.01917     -1.97414         0.286195     -0.038633     -0.191271
Li	      2.02614     -2.04352     -0.02340        -0.180151     -0.015164     -0.027199
Li	      5.92799      2.01043      0.00002         0.033474      0.171176     -0.009354
Mn	      5.96915     -4.09415     -1.96380         0.652631     -1.473486     -1.119301
Mn	      1.98949      2.02916     -0.02383        -0.425092      1.113231      0.180894
Ni	      3.95954      2.02932     -1.99421         0.341609      0.590445     -0.571489
Ni	      3.99339     -0.01822     -0.02592        -0.022971     -0.180103      0.289979
O	      6.05563     -0.03066     -0.02562         0.381255      0.230044      0.196616
O	      3.84821      1.91902     -0.01391         0.664014      0.715555      0.314362
O	      3.99252     -0.00599     -2.08823        -0.175454     -0.219738     -0.320742
O	      3.96939     -0.18579      2.04839         0.052885      0.112773      0.660212
O	      3.98108     -1.95592      0.11880        -0.010895     -0.897374     -0.426960
O	      1.98227      2.17108      1.88012        -0.175914      0.453548      0.694222
O	      1.91821      0.14905     -0.00199        -0.645467     -0.422632     -0.011508
O	      2.08712     -2.20688      1.98470        -0.573378      0.013224      0.275709
