# total energy = -255.27081454 eV
 
CRYSTAL
PRIMVEC
0.038943 6.526900 6.443656 
6.427896 0.058046 6.423818 
4.325246 4.377743 -0.000926 
PRIMCOORD
36 1
Li	      4.35468     10.65772      6.44927         0.005486      0.039738     -0.075085
Li	      2.41661      8.73221      6.52822        -0.091323     -0.006404      0.030868
Li	      4.30667      8.79441      8.32099        -0.103441     -0.032623      0.061391
Li	      6.51792      8.69260     10.73889         0.066660      0.000018      0.050139
Li	      2.31969      4.23394      2.12916         0.054009     -0.073655     -0.015065
Li	      4.31496      8.77037      4.54312        -0.038278      0.068033     -0.063035
Li	      6.25269      8.72589      6.48380         0.049730     -0.003183      0.000448
Li	      4.35165      6.83483      6.47758        -0.028293     -0.017162      0.046675
Li	      6.41880      6.62994      8.54869         0.054282     -0.007892     -0.025167
Sc	      2.13154      6.58047      8.40269         0.221214      0.150899     -0.043766
Sc	      4.50170      6.54950     10.70784         0.045945     -0.131390     -0.050357
Sc	      2.05640      2.30796      4.28581        -0.012993     -0.002419     -0.139859
Sc	      8.67586      6.55317      6.50679         0.065957     -0.047335      0.294933
Sc	      6.50586      4.35994      6.48418         0.008699     -0.096727      0.004580
Sc	      2.11778      6.54760      4.40249        -0.075044      0.013545     -0.106502
V	      4.29298      4.35737      4.27579         0.252876      0.514990     -0.509267
V	      8.60773      8.80160      8.60079        -0.027503     -0.244541      0.044927
Co	      4.33063      6.53955      2.15009         0.055712     -0.399427      0.117755
O	      4.34725      8.73356      6.44181         0.043503     -0.011371      0.038924
O	      2.03898      2.15373      2.19542         0.858158     -0.096341      0.176325
O	      4.37131      4.32458      2.30123        -0.238462     -0.251265      0.369711
O	      4.24147      2.18123      4.33884         0.041095      0.468146      0.034963
O	      6.40914      4.45735      4.28701         0.018220      0.031089     -0.029082
O	      6.40065      2.30179      6.48063        -0.106703      0.138840     -0.350640
O	      8.58494      4.46065      6.38128        -0.007836      0.043677     -0.040135
O	      2.28456      4.39144      4.25723         0.030551     -0.090863     -0.007859
O	      4.29923      6.46378      4.24643        -0.052981     -0.368981      0.708910
O	      4.38505      4.30235      6.39170        -0.117307      0.027642     -0.339912
O	      6.54455      6.49767      6.37976        -0.011245     -0.008889     -0.063001
O	      6.19613      4.41829      8.52224         0.034926      0.075500     -0.149283
O	      8.69740      6.72366      8.60843        -0.839271      0.195208     -0.028812
O	      2.15672      6.57786      6.41232         0.005703     -0.018711      0.042431
O	      4.26131      6.44419      8.63418         0.008260     -0.013266     -0.003799
O	      6.76422      8.80617      8.51115        -0.063169      0.068772     -0.019274
O	      6.48502      6.60998     10.66240        -0.085306      0.018188      0.040046
O	      8.63646      8.78423     10.56776        -0.021833      0.068162     -0.003125
