# total energy = -254.06745255 eV
 
CRYSTAL
PRIMVEC
0.064558 6.437122 6.421399 
6.538833 0.055704 6.429926 
4.367747 4.305780 0.028192 
PRIMCOORD
36 1
Li	      6.38465      0.19648      6.30602         0.000683      0.009309      0.008249
Li	      8.70714      2.25391      6.47515         0.042401     -0.006695      0.046741
Li	      4.62659      6.54366     10.81495         0.068125     -0.007958     -0.020430
Li	      6.44121      2.07397      4.42121        -0.007253     -0.000034     -0.035977
Li	      6.51973      2.22941      8.47330        -0.026059     -0.007539     -0.035826
Li	      6.55964      6.48209      4.32924        -0.035398     -0.011195     -0.020632
Li	      4.52374      2.06652      6.35725         0.087200      0.000926     -0.017819
Li	      4.41457      8.64935      4.39173         0.021757      0.012882      0.051449
Li	      6.50658      8.53748      6.45347        -0.041493     -0.014841     -0.005162
Sc	      2.12034      0.09806      2.12773         0.009658      0.012782      0.011246
Sc	      4.51515      8.52780      8.61246        -0.035018     -0.021360     -0.023037
Sc	      8.70077      4.33352      8.54988        -0.036377      0.018548     -0.020227
Sc	      4.33327      4.27284      4.39519        -0.023856     -0.006228     -0.022621
Sc	      6.66486      4.19252      6.33144         0.083030     -0.041841     -0.010554
Sc	      8.66611      6.52837     10.82065        -0.012316     -0.029471      0.007283
V	      4.46923      6.54172      6.41925         0.019030      0.029715     -0.016200
V	      8.77596      8.59542      8.63872        -0.005910     -0.029476      0.053205
Cu	      6.62375      6.46500      8.59282         0.036521     -0.004910     -0.005152
O	      2.30109      2.18302      2.15798         0.020960      0.005822      0.005888
O	      4.36445      4.23162      2.21910        -0.024575     -0.016618      0.055322
O	      4.36256      2.21634      4.25466         0.025657      0.056580     -0.002965
O	      6.42360      4.37165      4.26930        -0.082694      0.004854      0.033512
O	      6.60923      2.21898      6.40126        -0.027057      0.116558     -0.023792
O	      8.69699      4.37268      6.50990        -0.030572     -0.021375      0.014611
O	      2.24571      4.37945      4.21766         0.031411      0.028817      0.016585
O	      4.30854      6.41069      4.39284        -0.040768     -0.037190      0.034774
O	      4.44390      4.39459      6.54760         0.001447     -0.009235      0.046394
O	      6.39034      6.43277      6.57391        -0.072472     -0.037607     -0.124246
O	      6.50080      4.32308      8.50129        -0.034045     -0.046387     -0.050791
O	      8.83827      6.60070      8.60724         0.103211      0.072555      0.037155
O	      2.38166      6.48380      6.44352         0.040818      0.017333     -0.000411
O	      4.45405      8.48586      6.50129        -0.001358     -0.025871      0.024104
O	      4.29047      6.39959      8.55280        -0.176256     -0.061214     -0.036037
O	      6.70704      8.67255      8.53091         0.029100      0.054067      0.018263
O	      6.64041      6.48776     10.63397         0.062383      0.013636      0.122357
O	      8.79733      8.64305     10.42999         0.030081     -0.017337     -0.115258
