# total energy = -258.18706944 eV
 
CRYSTAL
PRIMVEC
0.025897 6.440458 6.428309 
6.529751 -0.016653 6.470050 
4.330132 4.298789 0.011534 
PRIMCOORD
36 1
Li	      6.43334      0.01790      6.38621        -0.037884     -0.020245      0.010362
Li	      4.49061      6.35727     10.75990        -0.015274     -0.016217     -0.049419
Li	      8.57318      4.43326      8.65309         0.003807     -0.057603      0.022242
Li	      4.32725      4.28717      4.31185         0.015657      0.036369      0.007361
Li	      8.71659      6.33510      6.58041        -0.012507     -0.076073      0.056262
Li	      6.54631      4.46003     10.59679        -0.005486     -0.024542      0.021667
Li	      8.52764      6.40995     10.62329        -0.039823      0.004862      0.024150
Li	      8.77347      8.51941      8.71323         0.005928     -0.007473      0.049612
Li	      6.72442      6.26642      8.76958         0.010372      0.017265     -0.047154
Sc	      8.77340      8.62534     12.78445         0.005991     -0.006941     -0.073727
Sc	      4.30967      2.21243      2.20968         0.046161     -0.031146     -0.069058
Sc	      6.53576      8.41666     10.75579        -0.018237     -0.036866     -0.045676
Sc	     10.69611      6.42192      8.71931        -0.107987      0.016066      0.053804
Sc	      6.56605      4.35063      6.52897        -0.039174      0.019014     -0.001171
Sc	      2.27349      4.29757      6.36120        -0.010039     -0.020785      0.013009
V	      2.21993      2.17000      4.28930         0.033211      0.002524      0.043241
V	      4.35797      6.42203      6.41292         0.052356      0.044736      0.024975
Fe	      6.51592      4.28245      2.21348         0.032819     -0.026060     -0.009999
O	      2.17961      2.06733      2.15441        -0.014114      0.038530     -0.005269
O	      4.48263      4.30361      2.13377         0.000078      0.033098      0.021111
O	      4.30563      2.13482      4.26099         0.014967      0.034590     -0.008639
O	      6.52386      4.36595      4.26669        -0.001973     -0.007920      0.022972
O	      6.58287      2.20082      6.46290        -0.020449     -0.011719      0.016779
O	      8.62638      4.20743      6.48631        -0.027341     -0.031069     -0.002502
O	      2.22775      4.15230      4.34657         0.015763      0.058153     -0.034153
O	      4.51917      6.43406      4.36682         0.047675     -0.005409     -0.043865
O	      4.36104      4.42638      6.43510         0.006970     -0.025114      0.000481
O	      6.49234      6.46528      6.40739         0.033754     -0.016318      0.003776
O	      6.51159      4.21048      8.55202         0.030946     -0.009718      0.006515
O	      8.75174      6.39290      8.62965         0.113654      0.024463      0.025524
O	      2.25824      6.41861      6.51531        -0.004658      0.025650     -0.030273
O	      4.38267      8.50169      6.48771        -0.040589      0.015810     -0.008034
O	      4.22533      6.52738      8.44012        -0.001040      0.020100      0.017034
O	      6.45353      8.68843      8.61202        -0.029761     -0.003473     -0.012760
O	      6.52115      6.46722     10.74950        -0.027249      0.042568      0.000315
O	      8.60160      8.55709     10.80571        -0.016527      0.000891      0.000508
