# total energy = -253.42396597 eV
 
CRYSTAL
PRIMVEC
0.004882 6.533252 6.414852 
6.353758 0.062549 6.356748 
4.267515 4.348802 0.009961 
PRIMCOORD
36 1
Li	      6.43564     10.86543      8.62227        -0.003343     -0.001245     -0.009271
Li	      4.29654      2.14792      2.23100         0.016842     -0.029571     -0.053613
Li	      4.26712      6.61156     10.41839         0.007615      0.013302     -0.018772
Li	      8.50411      4.53280      8.44108        -0.032620     -0.011394      0.015209
Li	      4.32132      4.23568      4.20180         0.041280     -0.047402     -0.021851
Li	      8.45703      6.60550      6.45714        -0.003156      0.021412      0.033237
Li	      8.40515      6.66184     10.52230        -0.032608      0.046526      0.044471
Li	      8.43143      8.70956      8.59019        -0.008416      0.006766     -0.028404
Li	      6.48354      6.62736      8.54663         0.033268      0.025876     -0.040632
Sc	     10.54191      4.42626      6.39531         0.009554     -0.010191     -0.019987
Sc	      2.11138      2.17005      0.04772         0.049298     -0.089945      0.004128
Sc	      4.09021      6.44663      2.25286         0.032326     -0.010203      0.028120
Sc	      2.30977      2.15579      4.17113         0.030205     -0.027177      0.002073
Sc	      6.29569      4.54476     10.46448        -0.003469      0.013484      0.029143
Sc	      4.29434      6.51885      6.56421        -0.033747      0.029253     -0.070487
V	      6.40559      4.38646      6.39913        -0.009933     -0.002689     -0.006825
V	      2.23688      4.37918      6.46856        -0.035979      0.039228     -0.011677
Ni	      6.32774      8.74201     10.58213         0.033389      0.042993     -0.030603
O	      2.07642      2.15841      2.12365        -0.005754     -0.026360      0.012370
O	      4.23685      4.41689      2.05340        -0.007609     -0.039488      0.068994
O	      4.29833      2.22236      4.20764        -0.129475     -0.027359      0.031437
O	      6.35985      4.38270      4.42231         0.046073      0.066136     -0.119074
O	      6.37447      2.22631      6.37071         0.009304     -0.005996      0.042925
O	      8.42741      4.30515      6.41521        -0.012749     -0.007000      0.030465
O	      2.08895      4.30933      4.55254        -0.009747      0.009399     -0.062761
O	      4.35972      6.69145      4.27693        -0.024507     -0.028155      0.029305
O	      4.22334      4.43232      6.39554         0.011874      0.022205      0.008724
O	      6.40240      6.59038      6.36462        -0.011275      0.034610      0.003109
O	      6.34829      4.34581      8.42226         0.001460      0.004224      0.071904
O	      8.49710      6.54371      8.54714        -0.022395      0.029257     -0.030467
O	      2.12759      6.45855      6.40088        -0.013975     -0.010365     -0.012678
O	      4.27521      8.74525      6.34884         0.009135      0.015832      0.040958
O	      4.22710      6.56687      8.46920         0.009071      0.015530      0.037275
O	      6.36743      8.71670      8.27914         0.018875      0.010623      0.013650
O	      6.35930      6.60391     10.68871        -0.017459     -0.067651     -0.009015
O	      8.49319      8.75608     10.71483         0.058647     -0.004462     -0.001379
