# total energy = -261.36213683 eV
 
CRYSTAL
PRIMVEC
0.029077 6.457549 6.462028 
6.451047 0.030501 6.460980 
4.317547 4.321101 0.003445 
PRIMCOORD
36 1
Li	      4.44138      4.33146      0.15171        -0.004296      0.010301     -0.022497
Li	      2.14269      2.01337      0.14700         0.041373      0.004168     -0.047825
Li	      2.00332      0.16265      2.04924         0.040252      0.015413      0.027404
Li	      4.31748      8.69250      8.47696         0.026494     -0.005508     -0.025130
Li	      0.14811      2.06875      1.95952        -0.041139      0.027558     -0.030251
Li	      2.15765      2.13227      4.16354        -0.023830     -0.030238     -0.080884
Li	      6.43717      4.29884      6.55581         0.003225     -0.008389      0.006590
Li	      6.44415      8.67069      6.65541        -0.005228      0.019057      0.077732
Li	      8.61635      8.60737      8.57266        -0.003995     -0.001983      0.035548
Sc	      8.49549      4.40275      4.31796         0.131331      0.105737      0.015609
Sc	      6.44195      2.24367      4.31103        -0.081186     -0.059823      0.006338
Sc	      2.19429      4.16004      2.01682         0.031266     -0.000561     -0.085721
Sc	      4.38093      8.59740      4.36380        -0.074500     -0.144198      0.063148
Sc	      2.19490      6.46396      4.36660         0.109983      0.050664      0.037238
Sc	      4.36854      6.46370      6.60049        -0.004051     -0.033292     -0.044694
V	      4.32460      4.33224      4.24731         0.072407      0.041527      0.058282
V	      4.30001      2.24285      6.48203        -0.017329      0.022267      0.007336
V	      6.48435      6.51624      8.61901         0.009900      0.027233     -0.030696
O	      2.14600      2.20611      2.10307         0.001029      0.015964      0.002801
O	      4.28455      4.32136      2.28481        -0.072493      0.010362     -0.071060
O	      4.31018      2.22878      4.35276         0.042623     -0.106894      0.006996
O	      6.46664      4.30316      4.26669        -0.188173      0.024993     -0.022329
O	      6.30759      2.17872      6.40694        -0.017306      0.012986     -0.035551
O	      8.60024      4.49652      6.40847        -0.018877     -0.008159     -0.009366
O	      2.17587      4.38429      4.20953         0.122335     -0.056098      0.001271
O	      4.30134      6.43441      4.37885        -0.067840      0.119253      0.011615
O	      4.33428      4.29480      6.32296        -0.000606     -0.015591      0.004577
O	      6.54381      6.49063      6.55368        -0.012913      0.008455      0.017545
O	      6.53130      4.44638      8.69790        -0.007475     -0.046779      0.000993
O	      8.53165      6.48755      8.61711        -0.032410      0.009332      0.031539
O	      2.25943      6.44667      6.39264         0.010709     -0.002330      0.003471
O	      4.38337      8.51589      6.38532        -0.006860      0.009088     -0.015516
O	      4.44060      6.43900      8.66368         0.023854     -0.004943      0.043758
O	      6.48688      8.48823      8.70929        -0.003824      0.006625      0.033658
O	      6.47014      6.47984     10.77260         0.021534     -0.012498      0.004772
O	      8.63834      8.67555     10.78770        -0.003984     -0.003700      0.023295
