# total energy = -194.30739982 eV
 
CRYSTAL
PRIMVEC
0.011780 6.131213 6.342800 
6.130529 0.017165 6.337591 
4.105414 4.102580 -0.007097 
PRIMCOORD
36 1
Li	      0.07499      6.10701      6.27693         0.081102      0.049356      0.005289
Li	      8.20936      8.18194     12.57159        -0.031066     -0.151852      0.005122
Li	      6.15822     10.20674      8.47385         0.008529     -0.046172     -0.137909
Li	      8.19559     10.16491     10.60827         0.009559      0.030273      0.024699
Li	      6.24345      8.24826     10.59864         0.070514      0.018908     -0.017886
Li	      4.16218      4.08540      4.22136        -0.051806      0.068336     -0.008093
Li	      8.17054      6.22935     10.64300         0.030328     -0.077508      0.183569
Li	      6.10660      8.22230      6.31674         0.033946      0.149508      0.021288
Li	      8.18669      8.22745      8.54741        -0.055358      0.035088     -0.034818
Mn	      4.10429      2.09127      6.28062        -0.076337     -0.021775     -0.015141
Fe	      4.09210      2.11206      2.10899         0.026478      0.016721      0.258083
Fe	      6.15355      6.17540      8.51381        -0.018975      0.064817     -0.219361
Co	      3.90516      6.14732      6.37258         1.675796      0.315361      0.345962
Cu	      4.09020      8.16983      4.24726         0.047492      0.006005      0.090118
Ni	      0.02888      2.00228      2.05465         0.014442     -0.108930     -0.000022
Ni	      2.06573      4.07607      2.08235         0.095615      0.016724     -0.022711
Ni	      6.12834      6.15887      4.23914        -0.001540     -0.033279      0.070191
Ni	      6.15128      4.12108      6.27055        -0.095450      0.008954     -0.017491
O	      8.37257      8.18904     10.55910        -0.084063      0.026074     -0.051117
O	      2.07060      2.03171      2.18054        -0.020694     -0.049266     -0.013393
O	      4.09044      4.06059      2.15858         0.025975      0.120139      0.021486
O	      3.96008      2.08300      4.31602         0.163892      0.001356      0.098552
O	      6.14538      4.27335      4.37907         0.013586     -0.146357     -0.105280
O	      6.00928      2.04036      6.29445        -0.101297     -0.038975     -0.132924
O	      8.09822      4.26554      6.32694         0.214223      0.046246     -0.075211
O	      1.88216      3.95986      4.15552         0.008250      0.123554      0.043124
O	      4.18076      6.26061      4.25749        -0.410670     -0.074003      0.450558
O	      4.20059      4.06348      6.29597        -0.266935      0.322930     -0.014455
O	      6.22582      6.21393      6.38960        -0.118431      0.053543     -0.006270
O	      6.16941      4.09516      8.18146        -0.095382      0.038674      0.153605
O	      8.20118      6.15392      8.24920        -0.031466      0.127038     -0.108286
O	      2.15264      6.07577      6.32734        -0.421151      0.090189      0.023005
O	      4.09752      8.13805      6.52126        -0.305948     -0.796669     -0.401234
O	      4.16764      6.21795      8.38728        -0.432858     -0.284107     -0.681736
O	      6.06401      8.12493      8.61022         0.153648      0.038457      0.064906
O	      6.19472      5.94160     10.43884        -0.053947      0.060641      0.203782
