# total energy = -194.16047345 eV
 
CRYSTAL
PRIMVEC
-0.011396 6.187710 6.271376 
6.173677 0.010600 6.249257 
4.109128 4.103906 0.013896 
PRIMCOORD
36 1
Li	      8.15906      2.08624      6.25436         0.037405     -0.080028      0.052298
Li	      6.13024     10.25230      8.34193         0.046386      0.050749     -0.001237
Li	      8.24597     10.27464     10.49106         0.085299      0.019466     -0.116615
Li	      6.13644      2.09439      4.19142        -0.043088     -0.005830     -0.043074
Li	      6.11444      2.03135      8.21634         0.085940     -0.031508      0.030665
Li	      8.29374      4.12405      8.25862        -0.014686     -0.030568      0.074571
Li	      8.29113      6.13613      6.35259        -0.031230      0.034808      0.014601
Li	      6.15948      8.23493      6.37107        -0.161308     -0.057362      0.060483
Li	      6.19730      6.25704      8.32834        -0.027407     -0.003610      0.026500
Mn	      6.16754      4.16487     10.37625        -0.002257      0.185698      0.065941
Fe	      2.12283      2.02678      4.16600        -0.197611      0.328031     -0.333618
Fe	      3.98549      6.16009      6.35452         0.180919      0.746512     -0.071604
Co	     10.25930      4.13234      6.27431        -0.143229      0.346379      0.080598
Cu	      4.08511      4.13520      4.18079         0.031570     -0.010678     -0.151283
Cu	      6.22795      4.04790      6.30741         0.305781     -0.284268      0.109575
Cu	      8.15288      8.21685      8.37416        -0.273742      0.290896      0.095522
Ni	      4.15630      8.25992      8.38423         0.082514     -0.129355     -0.167254
Ni	      8.19200      6.20203     10.38299        -0.044447     -0.101308      0.085367
O	      8.18746      6.25542      8.40595        -0.019594     -0.120796     -0.150141
O	      4.12749      6.28704      8.26071        -0.066183     -0.643721      0.220861
O	      6.16725      8.24281      8.41777         0.365410      0.047990      0.011916
O	      2.14800      2.01492      2.32164        -0.389300     -0.021940     -0.073786
O	      4.15510      4.02196      1.89426        -0.016260      0.450069      0.724394
O	      4.05958      2.19725      4.15610         0.208436     -0.039183      0.273752
O	      6.08224      4.17052      4.33007        -0.072430     -0.277999     -0.093842
O	      6.21571      1.98450      6.22507         0.042776      0.902045      0.054704
O	      8.41342      4.10123      6.27374        -0.690249     -0.066562     -0.129717
O	      1.98441      4.08103      4.12999         0.088241     -0.000803      0.043124
O	      4.11954      6.21016      4.23997         0.052151     -0.064981     -0.051514
O	      4.02887      4.20241      6.41942         0.367900     -0.626724     -0.145652
O	      6.09935      6.09672      6.08053         0.015195      0.057335      0.344310
O	      6.06515      4.14680      8.40405         0.215528      0.035299     -0.037727
O	      2.00250      6.20675      6.19133        -0.013373     -0.081833     -0.068651
O	      4.09903      8.25800      6.13165         0.048264     -0.705695     -0.098439
O	      6.17312      6.06480     10.56672        -0.055819     -0.166328     -0.461640
O	      8.36468      8.24819     10.33477         0.002497      0.055805     -0.173386
