# total energy = -195.22624566 eV
 
CRYSTAL
PRIMVEC
0.028641 6.071593 6.321332 
6.268451 0.034609 6.314616 
4.204517 4.068647 -0.001996 
PRIMCOORD
36 1
Li	      8.34356      2.08052      6.29349         0.003884      0.008781     -0.036345
Li	      4.25981      6.13004      2.20924        -0.028886      0.048614      0.046128
Li	      6.20250      6.09814      4.15687        -0.016273      0.000345     -0.041356
Li	      4.20135      2.04885      6.29684         0.000550     -0.048860      0.040680
Li	      6.19824      4.08644      6.33770        -0.003586     -0.015870      0.068940
Li	      4.11217      7.99692      4.23712         0.006778     -0.030291     -0.014993
Li	      2.26942      6.14681      4.16591        -0.067579      0.013763     -0.134415
Li	      4.25964      6.05916      6.20092         0.046833      0.082621      0.029464
Li	      8.44296      8.12742      8.45634         0.003221     -0.071398      0.051140
Mn	      6.30588      6.05346      8.41633         0.113957     -0.200715      0.117382
Fe	     10.42477      4.13346      6.33326         0.169723      0.252077     -0.046499
Fe	      2.17918      4.03525      6.27658        -0.262335     -0.097484      0.396159
Co	      4.24684      6.08554     10.51034        -0.016027     -0.057515      0.087039
Cu	      2.10394      0.06588      2.12414        -0.046877      0.420404     -0.154641
Cu	      2.03735      4.02107      2.14442        -0.050676      0.305553      0.004665
Cu	      4.14650      4.13074      4.26380         0.290742     -0.244001     -0.027619
Cu	      6.36771      8.14054     10.54194         0.044844      0.065006      0.075876
Ni	      4.15438      2.04724      2.10031         0.075314      0.005147     -0.061945
O	      6.35926      4.15733      8.41302        -0.052175     -0.192780      0.042100
O	      8.19104      5.95722      8.45582         0.187353      0.487067      0.005257
O	      8.34109      8.24241     10.51069         0.055361      0.067176     -0.036095
O	      2.13117      2.14186      2.09267        -0.159050     -0.497367      0.033640
O	      4.02581      4.10357      2.10595        -0.162831     -0.014240      0.047119
O	      4.32452      2.02563      4.14054        -0.032261      0.003184     -0.050593
O	      6.45387      4.04800      4.07100         0.004503      0.081628     -0.117013
O	      6.28358      1.93976      6.21547         0.006796     -0.040349      0.057067
O	      8.55247      4.09199      6.09610        -0.234029      0.026394     -0.091793
O	      2.20227      4.03549      4.35085        -0.209270      0.008781     -0.045191
O	      4.21208      6.02163      4.22170         0.039467      0.230410      0.050927
O	      4.13182      4.07251      6.24220         0.024315      0.007799      0.069201
O	      6.26439      6.14110      6.53065        -0.021286      0.071289     -0.084798
O	      1.95116      6.05450      6.50538         0.118725     -0.011342      0.118592
O	      4.30988      8.26948      6.31938         0.058275     -0.237365      0.003493
O	      4.34975      6.09783      8.55289        -0.061313     -0.140021      0.078394
O	      6.31455      8.05298      8.43254         0.116583     -0.203080     -0.311387
O	      6.17924      6.13462     10.45176         0.057229     -0.083359     -0.168580
