# total energy = -93.04511699 eV
 
CRYSTAL
PRIMVEC
2.004149 4.139453 2.003971 
2.042909 -4.178640 2.042665 
4.066006 -0.000060 -4.065609 
PRIMCOORD
16 1
Li	      4.06805     -4.13360     -0.02314        -0.137082     -0.099730      0.045336
Li	      6.00200     -0.01937     -1.99423         0.191497     -0.024915     -0.123452
Li	      2.04676     -2.06432     -0.02364        -0.116569     -0.013409     -0.015872
Li	      5.98833      2.03090      0.00003         0.022204      0.108020     -0.001402
Mn	      6.02990     -4.13582     -1.98378         0.443732     -0.994179     -0.760056
Mn	      2.00974      2.04981     -0.02407        -0.258436      0.727493      0.125479
Ni	      3.99985      2.04998     -2.01451         0.225148      0.372604     -0.369259
Ni	      4.03404     -0.01841     -0.02619        -0.023680     -0.115831      0.190727
O	      6.11726     -0.03098     -0.02588         0.284991      0.179732      0.127434
O	      3.88738      1.93855     -0.01405         0.399990      0.514926      0.231860
O	      4.03315     -0.00605     -2.10948        -0.112974     -0.153453     -0.247392
O	      4.00979     -0.18768      2.06924         0.027276      0.058438      0.467204
O	      4.02160     -1.97583      0.12001        -0.046514     -0.632454     -0.257176
O	      2.00245      2.19317      1.89926        -0.081126      0.333900      0.437042
O	      1.93773      0.15057     -0.00200        -0.453808     -0.244779     -0.000951
O	      2.10837     -2.22933      2.00490        -0.364648     -0.016365      0.150479
