# total energy = -194.72382326 eV
 
CRYSTAL
PRIMVEC
0.038782 6.070369 6.454447 
6.198074 0.019646 6.474388 
4.108064 4.035964 0.036515 
PRIMCOORD
36 1
Li	      6.13200      0.05730      6.42356        -0.087127      0.016890     -0.072032
Li	      6.12916      4.05415      2.28112        -0.006235      0.047105      0.225618
Li	      8.26400      4.06490      4.41742        -0.055280      0.087090      0.058098
Li	      6.23409      8.02498     10.83238        -0.180753      0.124984      0.001596
Li	      8.27121      4.07633      8.59460         0.003038     -0.071237     -0.009421
Li	      4.15472      4.05418      4.25367         0.048564     -0.082535     -0.036774
Li	      8.31185      5.98639      6.48235        -0.027547     -0.013852     -0.161686
Li	      6.22493      4.11713     10.70504         0.058569     -0.050247     -0.082935
Li	      6.20181      6.06629      8.81257        -0.024193      0.020004      0.137891
Mn	      4.10726      2.05641      2.23715        -0.212365      0.055245      0.917960
Fe	      2.08696      4.08006      6.42901        -0.025536     -0.203707     -0.294990
Fe	      4.14718      4.12392      8.67255        -0.137805     -0.100318      0.096117
Co	      6.20074      6.04319      4.33754         0.273007      0.235609     -0.178570
Cu	      4.12629      6.00652      2.17937         0.191086     -0.122395      0.292368
Cu	      6.23301      4.04249      6.47068         0.032628      0.198502     -0.492099
Cu	      8.20919      6.07364     10.73862         0.113328     -0.471911     -0.036628
Cu	      4.14400      6.07461      6.46682         0.250641      0.015800     -0.230008
Cu	      8.27205      8.13924     12.87609         0.108266     -0.039177     -0.150996
O	      6.15449      3.97444      8.50038         0.011512      0.061557      0.126292
O	      2.16063      6.09861      6.27184         0.078091      0.244202      0.102806
O	      6.28205      6.06366     10.80413        -0.120755     -0.037605      0.025855
O	      8.27130      8.02908     10.64053         0.050852      0.280564      0.042563
O	      2.13233      2.01221      2.39148        -0.014361      0.029988     -0.191502
O	      4.13503      3.98240      2.15355         0.014585      0.132799     -0.119489
O	      4.00312      2.05876      4.17083         0.472938     -0.100458     -0.331235
O	      6.19282      4.21064      4.46356         0.035301     -0.601352      0.228206
O	      6.25461      2.09609      6.52682        -0.033091     -0.322741      0.293292
O	      8.17833      3.98841      6.48833         0.233518      0.011632      0.053157
O	      2.07936      3.98313      4.45500        -0.015392      0.520888      0.313627
O	      4.31339      6.07917      4.26922        -0.737884      0.049060     -0.049650
O	      4.09914      4.09648      6.60034         0.014900     -0.013353      0.205352
O	      6.16325      6.07377      6.29189        -0.234437      0.051960      0.179359
O	      8.33364      6.10225      8.75932        -0.052426      0.005591     -0.218691
O	      4.12484      8.04121      6.70838        -0.122845      0.089013     -0.187007
O	      4.15972      6.11988      8.65843        -0.066939     -0.058480     -0.305227
O	      6.13146      8.10264      8.52429         0.164148      0.010885     -0.151217
