# total energy = -193.01439598 eV
 
CRYSTAL
PRIMVEC
0.038188 5.976907 6.256750 
6.284884 0.020086 6.275985 
4.206797 4.014748 -0.004072 
PRIMCOORD
36 1
Li	      4.26050      9.96330      6.26912        -0.054242      0.072009     -0.072075
Li	      2.21707      8.00986      6.27119         0.047247     -0.056091      0.004005
Li	      2.06481      0.03811      2.07192         0.071744      0.043427      0.018334
Li	      8.46154      9.99658     10.45668         0.020693     -0.006531      0.025545
Li	      2.12315      3.97970      2.07316        -0.028065     -0.003233      0.010064
Li	      4.19419      4.03396      4.12979         0.036574     -0.016816     -0.030860
Li	      6.31841      4.00773      6.29314         0.047219      0.054423      0.006653
Li	      0.05499      3.98214      4.15815        -0.005017      0.036894     -0.091683
Li	      4.16140      6.00633      6.29500        -0.008432     -0.055094      0.060795
Mn	      4.18228      2.04999      2.04780        -0.054134     -0.258264      0.355599
Fe	      6.31670      2.09480      4.21768        -0.125409     -0.227224      0.021999
Fe	      8.40978      5.96666      6.30328        -0.108872     -0.031269      0.045206
Co	      0.03455      1.96656      2.07666        -0.246767      0.189353      0.014711
Ni	      6.29663      5.97924      4.13980         0.112035     -0.063469      0.002962
Ni	      2.15678      5.95537      4.17773        -0.148464     -0.056331     -0.079474
Ni	      2.10575      4.00152      6.23413        -0.356831      0.585453      0.281322
Ni	      4.20205      4.04423      8.36627        -0.001072      0.043924      0.150957
Ni	      6.30113      5.94729      8.37633         0.152444      0.023299      0.048223
O	      2.26241      1.99826      2.13065         0.486259      0.030145     -0.096527
O	      4.22760      4.01685      2.05979         0.055527      0.223927     -0.021901
O	      4.29617      2.03420      4.11733        -0.133265      0.010339     -0.161561
O	      6.31707      3.91372      4.21830        -0.009208      0.415284     -0.020048
O	      6.14416      2.01332      6.33801         0.094164      0.013684      0.418744
O	      8.36448      4.20975      6.25738         0.043872     -0.438708      0.048204
O	      2.07340      3.98995      4.28057         0.046471      0.045639     -0.506725
O	      4.26450      5.99650      3.95302        -0.067348     -0.012154     -0.229459
O	      4.11944      3.86554      6.33807        -0.002836      0.152492     -0.187327
O	      6.42909      6.10003      6.21787         0.034192     -0.816276     -0.072761
O	      6.21956      3.91689      8.35443         0.068430     -0.808217     -0.026924
O	      8.33153      6.02064      8.37701         0.200922     -0.105071      0.067719
O	      2.18122      5.84558      6.12417         0.119617      0.708795      0.066342
O	      4.28105      7.99030      6.42491         0.207817     -0.108733     -0.188571
O	      4.31295      6.07006      8.33488        -0.384531      0.458166     -0.057262
O	      6.24809      8.00796      8.35218        -0.318826      0.180129     -0.072767
O	      6.37130      6.16279     10.40791        -0.086805     -0.214214      0.214306
O	      8.27387      7.96803     10.44571         0.294894     -0.009693      0.054236
