# total energy = -196.81227573 eV
 
CRYSTAL
PRIMVEC
-0.010172 6.366757 6.030752 
6.236230 -0.004660 6.024817 
4.145696 4.228754 0.009003 
PRIMCOORD
36 1
Li	      6.22941      6.37797     11.92995         0.048129      0.048064      0.102614
Li	      4.26652      6.31725     10.02446        -0.067634      0.082836     -0.010431
Li	      6.25997      8.41656     10.03620        -0.062806      0.052400     -0.057928
Li	      6.16479      6.39466      4.05229        -0.016086     -0.032928      0.045200
Li	      4.10253      4.29426      4.00932         0.039727     -0.001652     -0.035099
Li	      6.25018      4.28001     10.03515         0.123602      0.005420     -0.027287
Li	      8.21400      6.32249     10.05778         0.009333     -0.119879      0.065547
Li	      2.06217      4.23472      5.93479         0.007604     -0.013419      0.008893
Li	      6.25373      6.32763      8.15154         0.009637     -0.012581     -0.111574
Mn	      4.14065      6.37247      5.99719        -0.052330     -0.062346     -0.000832
Fe	      2.06558      4.26102      2.11520         0.135675     -0.169909     -0.033328
Fe	      6.22309      4.23666      5.93073         0.085823      0.103567     -0.702424
Co	      6.22226      4.23446      2.08571         0.106206      0.214716     -0.332136
Co	      4.15203      2.09826      5.89503        -0.052502     -0.015690     -0.351071
Cu	      8.29128      8.46839     11.94456        -0.056473     -0.221940      0.410608
Cu	      4.18687      2.12235      2.09016         0.179397      0.175257      0.165772
Cu	      8.28737      8.45961      8.13344        -0.246531      0.184599      0.000727
Ni	      4.13953      6.32490      2.09146         0.062943     -0.092677      0.027803
O	      6.24232      8.73632      8.05320        -0.006425     -0.388153     -0.018278
O	      6.23273      6.36897     10.03238         0.039383     -0.058671      0.059335
O	      8.31046      8.46360     10.00921         0.113370     -0.087911     -0.096698
O	      2.04061      2.01314      1.98191         0.252942      0.180452     -0.282319
O	      4.21730      4.22506      1.99454         0.092305     -0.271767     -0.105190
O	      4.14113      2.14092      4.11158         0.008396     -0.025657      0.299959
O	      6.21653      4.26474      3.97350         0.005327      0.006534      0.384880
O	      6.26187      2.21303      6.02313        -0.062188     -0.273895      0.029264
O	      8.25309      4.23653      6.11453         0.161209     -0.180405     -0.220443
O	      2.08815      4.21672      3.92176        -0.097520      0.040108      0.332573
O	      4.11437      6.33645      4.15426        -0.106981      0.061850      0.117538
O	      4.19078      4.32278      6.14112        -0.226090      0.091701      0.083826
O	      6.12547      6.27033      6.07263        -0.054480      0.212928      0.083094
O	      6.25490      4.14204      7.97143        -0.200917      0.045938      0.358043
O	      8.34632      6.26053      7.86237        -0.085518      0.231895     -0.035464
O	      2.19284      6.38753      6.17893         0.001276      0.302949     -0.228588
O	      4.08566      8.30749      6.11528        -0.009228     -0.051122     -0.031260
O	      4.01831      6.43317      7.98663        -0.078575      0.039389      0.104675
