# total energy = -197.30999273 eV
 
CRYSTAL
PRIMVEC
-0.020809 6.142843 6.225638 
6.136469 -0.016074 6.221146 
4.099865 4.100857 -0.019577 
PRIMCOORD
36 1
Li	      8.15310      8.19968     12.34442        -0.036576     -0.058648      0.050598
Li	      2.06050      6.12238      8.28709         0.019343     -0.029801     -0.037082
Li	      4.09101      8.14497      8.28519         0.032083     -0.039823     -0.023853
Li	      8.14690     10.12613     10.42915         0.028531      0.010705     -0.029316
Li	      6.19960      4.05856      6.18673        -0.044071     -0.010948      0.141187
Li	     10.08848      8.19274     10.35825        -0.073785     -0.024291     -0.155819
Li	      8.15590      6.21958     10.37767         0.025985     -0.027542     -0.062802
Li	      2.02561      4.11063      6.21388         0.001693      0.017496      0.006969
Li	      8.12241      8.20296      8.43193         0.118875     -0.009778     -0.088288
Mn	      4.01310      6.17414      6.21257         0.000187      0.036332      0.211718
Fe	      0.02114      6.04261      6.13659         0.218520      0.064728      0.147013
Fe	      6.12672      6.16018      8.32239        -0.081923     -0.569591      0.055027
Co	      6.17020      2.13079      8.26849        -0.281590     -1.046714      0.282736
Co	      4.10929      4.12506      4.14203         0.051010      0.078524     -0.093529
Ni	      6.14958      8.20075     10.35353        -0.156711      0.053262      0.086741
Ni	      2.06456      4.08281      2.04569        -0.161432      0.139357     -0.002165
Ni	      2.08102      2.03816      4.15089         0.009525     -0.107414      0.167481
Ni	      4.08983      2.04350      6.21056        -0.028383      0.162483      0.089505
O	      7.99922      8.21546     10.35484         0.143513     -0.006798      0.052709
O	      1.97505      2.06476      2.19455        -0.737356      0.256487     -0.173452
O	      4.10136      4.24442      2.16022         0.083225      0.478002     -0.075612
O	      4.18029      2.20700      4.18517        -0.061993      0.028904     -0.127457
O	      5.97245      4.13173      4.12951         0.127343      0.111367     -0.021042
O	      6.12896      1.94959      6.24126         0.148580      0.051481      0.504938
O	      8.31488      4.11849      6.22624        -0.208318     -0.252223     -0.007155
O	      2.27690      4.01502      4.09519        -0.022623      0.004499     -0.023005
O	      4.09728      6.06819      4.20218        -0.037263     -0.014150     -0.381213
O	      4.07829      4.17792      5.99845        -0.023441      0.101986      0.011979
O	      6.04480      6.14500      6.24326        -0.069996      0.038195     -0.272406
O	      6.11119      4.00265      8.31781         0.388130      0.080379     -0.075568
O	      8.13625      6.11787      8.20958         0.855584     -0.006718      0.131411
O	      2.06299      6.11224      6.23836         0.150935      0.024908     -0.055522
O	      4.07840      8.14850      6.18306        -0.057379     -0.175137     -0.014213
O	      4.14611      6.09978      8.10423        -0.257736      0.012593     -0.187090
O	      6.12406      8.06346      8.41758        -0.037537      0.508444     -0.127254
O	      6.10625      6.10073     10.35857        -0.024946      0.119445      0.093832
