# total energy = -199.74676797 eV
 
CRYSTAL
PRIMVEC
-0.060172 6.280942 6.189504 
6.146394 -0.049176 6.179247 
4.082526 4.165204 -0.017954 
PRIMCOORD
36 1
Li	      0.02891      6.15929      6.13669        -0.001294     -0.003593      0.034563
Li	      2.11608      8.24571      6.15128         0.062186     -0.033762     -0.092453
Li	      2.03095      6.33565      8.12992        -0.066373      0.154164     -0.050694
Li	      4.00907      8.29256      8.09655         0.016168     -0.080335     -0.017325
Li	      4.09787      6.14639     10.26640         0.063353     -0.044712     -0.096948
Li	     10.06401      8.38406     10.39869        -0.154953      0.067136      0.007745
Li	      1.96729      6.34881      4.25869         0.031059      0.137820      0.025365
Li	      3.95779      6.38443      6.20851         0.012258      0.062624     -0.034814
Li	      4.07709      4.23089      8.29663         0.059312      0.060778      0.106731
Mn	      8.14040      6.20410      6.17480        -0.113463      0.040499     -0.249472
Fe	      6.22839      8.28285     10.20735        -0.098710     -0.194741      0.184684
Fe	      2.03811      4.13179      2.11801         0.082196      0.062533     -0.207990
Co	      2.02572      2.05313      4.08514         0.058218      0.099173      0.281132
Co	      6.10562      4.12490      6.18594         0.001540     -0.099010     -0.001860
Co	      6.02243      6.24273      8.23056        -0.580813      0.066269      0.538038
Cu	      4.07827      4.17238      4.11232         0.030765      0.091453     -0.095854
Cu	      1.89773      4.34404      6.23133         0.067371      0.111113      0.068013
Ni	      4.06346      6.26155      2.06853        -0.049243      0.074590      0.159727
O	      2.00121      6.23312      6.20172         0.052518      0.145921      0.128681
O	      4.11260      8.37581      6.13335        -0.177842     -0.003379      0.040935
O	      2.01520      2.17202      2.08384         0.030196     -0.215408      0.575692
O	      4.01154      4.23464      2.12932         0.030829     -0.104824     -0.050586
O	      3.99676      2.09821      4.24554        -0.146522     -0.111778      0.202793
O	      6.06891      4.05622      4.24620         0.099652      0.970788     -0.023115
O	      5.98839      2.17424      6.17458        -0.213320      0.051417     -0.032438
O	      8.06163      4.26675      6.21544        -0.088473      0.113029      0.068005
O	      2.08588      4.18697      4.14441        -0.180846     -1.033072      0.042995
O	      4.22345      6.15748      4.10440         0.196612      0.126601     -0.197190
O	      4.12884      3.98907      6.13477         0.028036     -0.107169      0.188573
O	      6.18890      6.07271      6.20443         0.122891      0.008441     -0.831297
O	      6.13720      4.23221      8.12956         0.090687     -0.329828     -0.256227
O	      8.06355      6.18318      8.11699         0.029826     -0.031096     -0.158395
O	      4.22135      6.23014      8.23075         0.134060     -0.114432     -0.196940
O	      6.06213      8.16057      8.22581         0.235007      0.349319     -0.525270
O	      6.05857      6.35523     10.13508         0.103830     -0.354274      0.491921
O	      8.06506      8.31501     10.33777         0.233280      0.067746     -0.026728
