# total energy = -199.67985431 eV
 
CRYSTAL
PRIMVEC
-0.018111 6.280725 6.191923 
6.151310 0.021317 6.152118 
4.130423 4.190328 -0.015373 
PRIMCOORD
36 1
Li	      6.17296      2.10459      4.11012         0.016636     -0.028788      0.043762
Li	      6.15486      6.37351      4.17522        -0.002009      0.009064     -0.039207
Li	      4.01322      4.24671      4.22778         0.008964      0.010246     -0.010753
Li	      4.03053      2.20096      6.13783        -0.065027      0.009964     -0.053463
Li	      6.08599      4.28649      6.14015        -0.000521      0.068353     -0.054055
Li	      0.06917      4.15135      4.09767        -0.014508      0.018536      0.016205
Li	      2.10052      6.19034      4.08373        -0.013031      0.002530     -0.010498
Li	      2.08924      4.06449      6.05645        -0.045149     -0.016020      0.033990
Li	      6.20339      6.31977      8.12747        -0.023215      0.058782     -0.068773
Mn	      8.21847      4.17515      4.15579        -0.025867      0.049807      0.010749
Fe	      6.19976      4.17685      2.08706        -0.031102     -0.006465     -0.047854
Fe	      4.16583      2.10958      2.12536         0.028407      0.007055     -0.064076
Co	      6.15627      6.29089     12.29460         0.045880     -0.117190      0.371129
Co	      8.20130      8.37383     12.27383         0.022165     -0.095764      0.067929
Co	      4.09192      4.19747      8.22361        -0.045475      0.025712      0.037947
Cu	     10.25055      6.36495      8.27551         0.062279     -0.149414     -0.048900
Cu	      8.08170      4.29504      8.30758        -0.131521      0.073460     -0.184626
Cu	      4.16198      6.20467      5.99766         0.119971     -0.005336      0.054611
O	      5.99002      6.28403      6.14622         0.119338      0.054207     -0.050154
O	      8.28102      6.46054      8.16366        -0.031738     -0.054583      0.026275
O	      6.01494      6.29214     10.47241        -0.065762      0.030330     -0.188901
O	      2.08058      2.04150      2.04584         0.050548     -0.070512      0.002145
O	      4.18583      4.15443      1.90775        -0.002810      0.023531     -0.027590
O	      4.13309      1.94622      4.04829        -0.021687     -0.067597      0.207201
O	      6.29730      4.16870      4.02955         0.058425     -0.011006      0.124002
O	      6.33409      1.91018      6.20212         0.002169      0.024046     -0.064483
O	      8.15206      4.05780      6.09627        -0.010245     -0.045387      0.031668
O	      2.06523      4.22242      4.01336        -0.026366     -0.032147      0.083560
O	      4.11392      6.28702      4.05903        -0.019551      0.080669     -0.071173
O	      4.07330      4.25672      6.33482        -0.029209     -0.114859      0.004685
O	      6.00929      4.12120      8.20262         0.170397      0.115425     -0.056496
O	      2.22513      6.42946      6.21520        -0.106438      0.031767     -0.032254
O	      3.96219      8.49957      6.27623        -0.062415      0.146503     -0.090116
O	      4.11467      6.25102      8.39472         0.038747      0.036761      0.027212
O	      6.16287      8.46327      8.17825         0.027913     -0.066498      0.018048
O	      8.20620      8.53522     10.20013         0.001809      0.004818      0.002253
