# total energy = -93.17789677 eV
 
CRYSTAL
PRIMVEC
2.014271 4.160359 2.014092 
2.053227 -4.199744 2.052982 
4.086542 -0.000060 -4.086142 
PRIMCOORD
16 1
Li	      4.10925     -4.17546     -0.02337        -0.069905     -0.049751      0.025293
Li	      6.06278     -0.01956     -2.01442         0.093424     -0.011682     -0.061783
Li	      2.06749     -2.08523     -0.02388        -0.057623     -0.007525     -0.005201
Li	      6.04897      2.05146      0.00003         0.010374      0.049013      0.002568
Mn	      6.09097     -4.17770     -2.00387         0.232403     -0.501990     -0.394115
Mn	      2.03009      2.07057     -0.02432        -0.116400      0.358458      0.057063
Ni	      4.04035      2.07074     -2.03491         0.114675      0.179454     -0.184557
Ni	      4.07489     -0.01859     -0.02646        -0.015866     -0.059015      0.099248
O	      6.17921     -0.03129     -0.02614         0.189168      0.128518      0.062469
O	      3.92674      1.95818     -0.01419         0.160011      0.320188      0.161820
O	      4.07399     -0.00611     -2.13084        -0.054534     -0.102796     -0.174426
O	      4.05040     -0.18958      2.09019         0.005729      0.008618      0.278886
O	      4.06232     -1.99583      0.12122        -0.075054     -0.379633     -0.095586
O	      2.02272      2.21538      1.91849         0.012405      0.192355      0.194617
O	      1.95735      0.15209     -0.00202        -0.266530     -0.093430      0.010404
O	      2.12972     -2.25191      2.02521        -0.162275     -0.030784      0.023299
