# total energy = -203.40364708 eV
 
CRYSTAL
PRIMVEC
-0.023673 6.140531 6.284795 
6.148728 -0.019897 6.280282 
4.103709 4.095564 -0.016878 
PRIMCOORD
36 1
Li	      2.05821      2.06955      0.01751         0.008950     -0.049154      0.002325
Li	      6.12289      2.10363      8.36272         0.010158      0.007570     -0.022319
Li	      1.99509      4.06199      2.13127        -0.024487      0.020955      0.052672
Li	      2.00762      2.10358      4.18230        -0.025044      0.135819     -0.048828
Li	      8.16867      6.14570      6.35177         0.010568      0.023626      0.101340
Li	      4.09303      8.12356      4.17198         0.025191      0.023316      0.005344
Li	      6.11571      8.14550      6.23214        -0.012105      0.003654      0.018389
Li	      4.18319      6.09871      6.20036         0.059645      0.010091      0.056379
Li	      4.15968      4.00520      8.32523        -0.055580     -0.079500     -0.046713
Mn	      2.04655      6.18965      8.30355         0.004484      0.013776     -0.198277
Fe	      6.15919      2.02103      4.22857         0.148514     -0.034949     -0.077569
Fe	      2.11226      6.11756      4.15654        -0.127642     -0.156660      0.054652
Co	     10.18352      4.05133      6.28102         0.137799     -0.007557      0.115950
Co	      4.09280      2.09842      2.08509        -0.033998      0.030360     -0.191766
Co	      6.12777      4.08139      6.31205        -0.218506      0.008332      0.240615
Co	      6.17875      6.03519      8.33502         0.126362      0.006523     -0.155875
Cu	      8.19274      4.07441      4.19170         0.060461     -0.187060     -0.209131
Cu	      4.06973      4.13206      4.23915        -0.000544      0.078493     -0.092710
O	      4.25014      4.07398      6.22090         0.160600      0.007139      0.184845
O	      6.12653      4.10727      8.20251        -0.016273     -0.031160     -0.144682
O	      2.16211      1.94412      2.10000         0.057246      0.012341      0.028048
O	      4.18211      4.03810      2.13750         0.017721     -0.068805     -0.131894
O	      4.14560      2.15250      4.02631        -0.155186     -0.087401      0.054589
O	      6.14844      4.06399      4.28871         0.163664      0.046083      0.197584
O	      6.11047      1.97660      6.19073        -0.012616     -0.089234      0.015721
O	      8.22889      4.07085      6.11514         0.131945      0.042974      0.112509
O	      2.08225      4.20834      4.21693        -0.086791     -0.513771      0.000921
O	      4.04523      6.12334      4.19877         0.204289     -0.224483      0.044731
O	      6.16482      5.98240      6.44342         0.057585     -0.029677     -0.024833
O	      8.08229      6.12228      8.47110        -0.091291     -0.011365     -0.242584
O	      1.85047      6.13668      6.22010        -0.214530      0.037415      0.057796
O	      4.05995      8.34290      6.45384        -0.044652      0.096960      0.111644
O	      4.06184      6.26838      8.46811        -0.004713      0.092190     -0.009982
O	      6.04553      8.28217      8.41012        -0.086347      0.017810      0.030040
O	      6.11654      6.11656     10.30203        -0.124375      0.007366      0.098075
O	      8.13762      8.00926     10.43509        -0.050502      0.847985      0.012997
