# total energy = -203.30551779 eV
 
CRYSTAL
PRIMVEC
0.008057 6.351006 6.193850 
6.074192 0.012717 6.188391 
4.070640 4.251570 -0.012540 
PRIMCOORD
36 1
Li	      8.14406      8.52292     12.32668        -0.025981     -0.005786      0.045925
Li	      4.10517      8.40662      8.29870        -0.027869     -0.012384     -0.016382
Li	      4.10115      6.34316     10.21729         0.021626     -0.011051      0.001507
Li	      6.10629      8.40734     10.25837         0.001023     -0.003986     -0.000798
Li	      4.03483      4.25494      4.12108        -0.026676      0.009360      0.001034
Li	      0.02871      4.23704      4.10951         0.023586      0.016317      0.013933
Li	      4.07578      6.40211      6.21195        -0.010629      0.045548     -0.017574
Li	      4.02391      4.33996      8.27502        -0.013183      0.017872      0.006781
Li	      6.02066      6.29101      8.39044         0.019976     -0.063333      0.016602
Mn	      2.10661      6.33820      8.29264         0.031788      0.073138     -0.012601
Fe	      6.07785      6.32168     12.30464         0.135446     -0.033148      0.089715
Fe	      4.03306      2.16774      6.19583        -0.103701     -0.069873      0.057433
Co	      2.05007      4.22941      2.10126        -0.068879     -0.105737      0.169155
Co	      6.07321      6.33989      4.10286        -0.095858      0.126532     -0.061679
Co	      8.14971      6.65303     10.26768        -0.021307      0.150706     -0.028049
Co	      6.09413      8.47893      6.24311         0.039664     -0.063627     -0.007362
Ni	      6.06822      2.16138      8.23856         0.060659     -0.018880      0.066597
Ni	      6.06080      4.23708      6.15052        -0.142888      0.060247     -0.065353
O	      2.03196      1.98204      2.18252         0.121612     -0.062732      0.056854
O	      4.02485      4.30083      1.97145        -0.030491     -0.060763      0.048359
O	      3.87236      2.08986      4.21110        -0.184381     -0.081238     -0.113264
O	      6.05857      4.41574      4.06119         0.028502      0.104347     -0.178182
O	      6.01766      2.15416      6.14933         0.012462     -0.147824     -0.127425
O	      8.13874      4.28737      6.29419         0.065134      0.058406      0.087690
O	      2.03603      3.99718      4.04476        -0.009500     -0.311881     -0.170440
O	      4.11740      6.34151      4.07729         0.176641     -0.079461      0.128731
O	      3.92464      4.14656      6.20657         0.082816      0.071259      0.001863
O	      6.07057      6.36646      6.03248         0.032425      0.004047     -0.072961
O	      6.25231      4.20086      8.17125         0.151239      0.184780      0.157196
O	      8.10502      6.36118      8.27940        -0.163225     -0.003039     -0.041530
O	      2.02429      6.34227      6.28199         0.040445      0.047375      0.085315
O	      4.26328      8.56814      6.17592        -0.146289      0.010358     -0.047314
O	      3.94193      6.35862      8.26289        -0.067203     -0.023624      0.004847
O	      6.08138      8.69727      8.23647         0.031282      0.078817      0.035779
O	      6.18567      6.36012     10.37371         0.070919      0.028950     -0.135877
O	      8.17288      8.40946     10.33725        -0.009183      0.070309      0.021471
