# total energy = -208.66045467 eV
 
CRYSTAL
PRIMVEC
0.004020 6.171343 6.109090 
6.191269 -0.034001 6.146521 
4.107237 4.118823 -0.001997 
PRIMCOORD
36 1
Li	      6.18977      0.06362      6.13211         0.017484      0.005472     -0.019755
Li	      6.24596      8.15985     10.31313         0.139639     -0.025773      0.081249
Li	      6.20512      2.00694      8.09944         0.023047      0.003795     -0.102585
Li	      8.16175      4.13089      8.17086        -0.052168     -0.018359     -0.070669
Li	      4.29063      1.95491      6.17112         0.177936     -0.048660      0.069394
Li	      6.21193      3.99816      6.18559         0.041252     -0.112396      0.082873
Li	      0.04453      4.13225      4.07401        -0.123898      0.051371      0.040276
Li	      8.17486      6.10966     10.21980        -0.078282      0.106662      0.064632
Li	      2.05702      4.10445      6.05027        -0.053488      0.071819      0.112601
Mn	      6.24558      6.09962      8.13779        -0.219747     -0.112657     -0.375259
Fe	      4.15155      8.27561      8.12051        -0.087533      0.101018     -0.480720
Fe	      4.05890      4.12106      4.17631         0.273310     -0.079222      0.135903
Co	      8.18691      2.06585      6.12044         0.417519     -1.328881      0.189236
Co	      2.07910      6.16648      8.14147        -0.046366      0.015524     -0.392457
Co	      8.25430      4.10410      4.19355         0.030976     -0.795226      0.171222
Co	      6.15119      6.15955      4.11252         0.055192      0.407225      0.359260
Co	      4.09259      6.18609      6.08664        -0.161659      0.126744     -0.010848
Co	      8.27046      8.16189      8.18877        -0.056574     -0.285893      0.062196
O	      2.11324      1.91403      2.10345        -0.015719     -0.050559     -1.001834
O	      4.27306      4.06165      2.12260         0.045386      0.074479      0.179824
O	      3.99965      1.98084      4.09450         0.059907     -0.076473      0.100314
O	      6.20187      4.19587      3.96975         0.307523     -0.077858      0.147052
O	      6.33492      2.00854      6.15284        -0.633765      0.164995      0.041163
O	      8.27493      3.88807      6.12965        -0.038718      1.420783     -1.155356
O	      2.13521      3.96517      4.05734        -0.231889     -0.050683     -0.116172
O	      4.21324      6.12454      4.16808        -0.105407      0.075650      0.098728
O	      4.12463      4.23425      6.12658        -0.095020      0.078618     -0.376628
O	      6.02411      6.18813      6.08796         0.169195     -0.140746      1.133012
O	      6.14358      4.23853      8.16314         0.211363      0.278912      0.002665
O	      8.09816      6.12424      8.15617        -0.243513      0.036836      0.067789
O	      2.14067      6.29629      6.19636         0.057870     -0.359939      0.090271
O	      3.96723      8.13458      6.14359         0.371342     -0.044921      0.078947
O	      4.08704      6.20858      8.05209         0.104614      0.067859      0.547621
O	      6.14606      8.26215      8.13870        -0.059177     -0.031433      0.016913
O	      6.07765      6.18374     10.02505        -0.182415      0.032025      0.385207
O	      8.23976      8.35456     10.27893        -0.018214      0.519891     -0.156065
