# total energy = -191.02257578 eV
 
CRYSTAL
PRIMVEC
-0.004441 6.212452 6.179096 
6.223696 0.002908 6.171865 
4.162513 4.150043 -0.011068 
PRIMCOORD
36 1
Li	     10.29692      4.18964      6.14424        -0.043786     -0.016361      0.088872
Li	      8.30865      4.15340      4.17778        -0.108223     -0.002779      0.022992
Li	      6.20045      2.14616      8.21545         0.142990     -0.008563     -0.069251
Li	      6.21037      6.25079      4.13000         0.092713      0.070839     -0.014969
Li	      8.28357      6.18358      6.20027        -0.036844      0.017516     -0.078588
Li	      6.26825      4.15623      6.21702         0.007934     -0.011232     -0.039546
Li	      6.26992      4.15010     10.21310         0.063692      0.007525      0.000954
Li	      2.08054      4.09760      6.13407        -0.015826     -0.059406     -0.017658
Li	      6.26119      6.15477      8.22486        -0.104637      0.001219     -0.085450
Mn	      4.13554      2.07664      2.06492        -0.030303     -0.032839      0.110772
Fe	      6.22943      2.04165      4.16096        -0.092190      0.792081     -0.124845
Fe	      4.24101      6.19116      6.13276        -0.073199      0.044753      0.431732
Cu	      4.28804      4.06281      8.20250         0.034647      0.204391     -0.058976
Ni	      8.32647      2.14198      6.14244        -0.075386      0.071436     -0.012420
Ni	      6.21128      4.15234      2.04067        -0.136951      0.060408      0.136559
Ni	      8.25148      4.17552      8.21203         0.070202     -0.068070      0.067140
Ni	      4.12397      4.11383      4.16151         0.019620     -0.061422      0.076904
Ni	      8.29872      6.22993     10.26157        -0.164824     -0.141719     -0.281868
O	      6.27143      4.12817      8.25681        -0.131823      0.018600     -0.005947
O	      2.19900      2.06451      2.05800         0.038158      0.001224      0.096701
O	      4.14237      4.00204      2.06956        -0.050637     -0.018178     -0.075629
O	      4.15655      2.05708      4.00910        -0.038684     -0.236899     -0.082298
O	      6.17929      3.95299      4.05797         0.138190     -0.006177      0.214637
O	      6.32565      2.07455      6.02938         0.013782     -0.070631      0.210115
O	      8.29638      4.08879      6.26929         0.032137      0.058755     -0.210678
O	      2.10050      4.25450      4.00544        -0.192057     -0.098814      0.205503
O	      4.12338      6.16475      4.23565        -0.364130      0.185394     -0.566334
O	      4.10256      4.20609      6.26038        -0.020275     -0.148414     -0.023247
O	      6.02738      6.24250      6.12642         0.227200     -0.015387      0.001986
O	      8.33413      6.21708      8.25729         0.037827      0.092083      0.509343
O	      2.25233      6.33312      6.15736        -0.064115     -0.008533     -0.519571
O	      4.11293      8.27050      6.30570         0.057049      0.129078      0.016054
O	      4.10361      6.31748      8.12908         0.136436      0.015682      0.155655
O	      6.07670      8.31914      8.32931        -0.035462     -0.205686     -0.093165
O	      6.26604      6.40555     10.30961         0.578047     -0.668112      0.003408
O	      8.28146      8.25665     10.18835         0.088730      0.108239      0.011116
