# total energy = -191.73069764 eV
 
CRYSTAL
PRIMVEC
0.060246 6.123750 6.221992 
6.271318 0.059890 6.223162 
4.202068 4.104765 0.018081 
PRIMCOORD
36 1
Li	      8.41020      8.22846     12.37788        -0.077373      0.012174     -0.017103
Li	      6.37156     10.18262      8.34755        -0.036684     -0.028792      0.055741
Li	      6.39345      8.25143     10.35314         0.016160      0.048339      0.043652
Li	      6.28840      2.14211      8.28302         0.025972      0.058199     -0.044828
Li	      4.25202      4.10394      4.23076         0.051498      0.010257      0.033845
Li	      6.23233      4.10256      6.22959         0.032667     -0.014696     -0.018905
Li	     10.45197      8.23023     10.33906         0.012773     -0.009542     -0.114650
Li	      2.19240      4.12480      6.29497         0.037970      0.018353      0.026299
Li	      8.41356      8.23270      8.31554         0.043172     -0.046785      0.001289
Mn	      8.36860      4.15824      8.30388        -0.082454     -0.094723     -0.002519
Fe	      0.11809      6.12755      6.18800         0.018800      0.101101     -0.125875
Fe	      6.26759      6.13149      4.19989        -0.133306      0.049293      0.083543
Cu	      4.27603      8.18907      8.31535        -0.125503      0.067146      0.060152
Cu	      8.46968      6.25987     10.37504         0.016011     -0.079587      0.061681
Ni	      8.41225     10.20419     10.37289        -0.058564     -0.038389      0.117501
Ni	      4.22136      2.15219      6.23386         0.024598     -0.006304     -0.011339
Ni	      4.20355      6.12144      6.25088         0.007274      0.019324     -0.083716
Ni	      6.32249      6.18913      8.30765         0.042754     -0.108356     -0.000253
O	      6.22070      8.12857      8.34649        -0.060079      0.239813      0.009587
O	      8.42247      8.24843     10.33451        -0.011507     -0.200761     -0.074238
O	      2.10189      2.17174      2.16643         0.194650      0.120938     -0.300291
O	      4.10622      4.04412      1.97994        -0.042463     -0.069675      0.273923
O	      4.07731      1.99938      4.13014         0.267777      0.195097     -0.236927
O	      6.35255      4.23161      4.13998        -0.099587     -0.341666     -0.000561
O	      6.21428      1.94098      6.24106        -0.006184      0.415813      0.018752
O	      8.47097      4.22812      6.31867        -0.193754     -0.096534      0.119544
O	      2.14897      4.04508      3.99068         0.023560      0.277965     -0.085770
O	      4.29312      6.14765      4.26345        -0.270656      0.026901     -0.168007
O	      4.22779      4.10342      6.27864        -0.026966      0.014775      0.063986
O	      6.34380      6.21409      6.17987         0.066368      0.041223      0.263754
O	      6.50150      4.21500      8.26261         0.062278     -0.153800      0.054491
O	      8.40987      6.09638      8.37749         0.080177     -0.051021     -0.097056
O	      2.09657      6.15453      6.11427         0.227924     -0.027211      0.126363
O	      4.23906      8.27753      6.33255        -0.030261     -0.376559      0.161667
O	      4.26800      6.22167      8.24119        -0.120625      0.060403      0.079062
O	      6.26921      6.13443     10.44267         0.123587     -0.032713     -0.272792
