# total energy = -191.64903870 eV
 
CRYSTAL
PRIMVEC
-0.036083 6.135716 6.246625 
6.223153 -0.035623 6.246741 
4.135284 4.077413 -0.010688 
PRIMCOORD
36 1
Li	      4.15698     10.16734      6.29026         0.056211     -0.039484      0.046415
Li	      1.99901      6.12646      8.28299         0.033211     -0.015899     -0.061061
Li	      4.13168      8.18238      8.28596         0.079752     -0.050523     -0.070335
Li	      6.13712      6.15332      4.15373        -0.120963      0.104455     -0.028262
Li	      4.07775      4.12720      4.07994        -0.029717      0.006182     -0.001248
Li	      4.18452      8.09725      4.21188         0.165488     -0.083811      0.009356
Li	      2.14454      6.07341      4.22212         0.065465     -0.019176     -0.006881
Li	      4.08651      6.15947      6.19576         0.055264     -0.026537     -0.007046
Li	      6.14574      6.13987      8.31925        -0.037932      0.025154     -0.019262
Mn	      2.01695      4.11013      6.15705         0.060928     -0.050834      0.046671
Fe	      4.16799      0.00840      4.17972        -0.105399     -0.152687     -0.353879
Fe	      8.23324      8.12190      8.31916        -0.036960      0.010558     -0.001882
Cu	      2.08492      8.09210      6.24182         0.093375     -0.076748     -0.047380
Cu	      6.19688      2.00708      4.16721        -0.027295     -0.069202     -0.137887
Cu	      4.13189      6.10538      2.10632        -0.042157     -0.000787     -0.009444
Ni	      2.05770      4.09587      2.15777        -0.070363      0.081350      0.108167
Ni	      4.11376      2.03778      6.23638        -0.037290      0.027375      0.081825
Ni	      6.16394      4.12074      6.22898        -0.183615      0.120809      0.077991
O	      2.07572      6.04687      6.21703         0.076277     -0.026026     -0.008378
O	      4.28271      8.12072      6.26852        -0.276383      0.055222     -0.055642
O	      5.98603      6.20467     10.45136         0.648382      0.405988      0.051893
O	      2.03036      2.09265      1.91371        -0.105540     -0.046219      0.225118
O	      4.03927      4.21735      2.08108         0.136806     -0.093333     -0.011404
O	      4.24561      1.98602      4.15665         0.440467      0.374530      0.069556
O	      6.38675      3.97153      4.19068        -0.547608     -0.395033     -0.013697
O	      6.07920      2.06906      6.42613         0.509500     -0.149023     -0.019866
O	      8.21077      4.06399      6.19339         0.096710     -0.247492      0.019798
O	      2.04391      4.09266      4.24584         0.025527     -0.028626      0.105251
O	      4.17452      6.10331      3.95653        -0.002227      0.027917      0.190883
O	      4.09081      4.06224      6.29019        -0.123119      0.191956     -0.149333
O	      6.28828      6.17999      6.19395        -0.290789      0.130234     -0.092795
O	      6.13532      3.97154      8.30992         0.218320      0.016444      0.068513
O	      8.25592      6.14667      8.32963         0.067660     -0.353193     -0.036431
O	      4.14667      5.94545      8.49470         0.030408      0.536182      0.133388
O	      6.30947      8.13459      8.13598        -0.410834     -0.000948     -0.058611
O	      8.15204      8.14101     10.49770        -0.411560     -0.188778     -0.044102
