# total energy = -191.60484338 eV
 
CRYSTAL
PRIMVEC
0.000568 6.182212 6.301241 
6.119074 -0.019598 6.321538 
4.080775 4.136299 -0.015164 
PRIMCOORD
36 1
Li	      2.05115      2.04427      0.06997         0.005805     -0.000177      0.046149
Li	      2.11101      6.25762      8.28772         0.046272     -0.005516      0.035517
Li	      4.08589      8.17574      8.36947         0.007155      0.037381      0.032638
Li	      4.03412      0.04175      4.15345        -0.042408      0.088252     -0.160380
Li	      2.15461      2.01603      4.18275        -0.002439     -0.035007     -0.002955
Li	      4.05541      2.06582      6.26891        -0.026722      0.019563     -0.024660
Li	      6.12681      8.28382      6.37664         0.020327     -0.012610      0.076383
Li	      4.06274      6.13352      6.40724         0.021040     -0.000890     -0.063908
Li	      4.03595      4.17970      8.34861        -0.037597      0.015011     -0.030223
Mn	      6.03727      6.18310      8.31454        -0.091470      0.156902     -0.130380
Fe	      6.11285      8.25695     10.46857        -0.181398     -0.025287      0.045421
Fe	      4.00998      8.24561      4.32692         0.216537     -0.305338     -0.565328
Cu	      0.01960      2.06659      2.09207         0.166115      0.022445     -0.412320
Cu	      4.10627      4.09807      4.25010        -0.135986      0.134732     -0.136957
Cu	      6.12019      4.10651      6.31128         0.054974      0.262165     -0.062841
Cu	      2.02785      6.18021      4.21659        -0.006249      0.116105      0.207106
Cu	      4.07255      4.12456      0.05442         0.049586      0.136478      0.177257
Ni	      2.07249      4.10113      2.09687        -0.027431     -0.068694      0.016720
O	      8.12153      6.01277      8.47272         0.010267      0.229541     -0.024047
O	      1.91629      6.17517      6.19401        -0.236808     -0.010454      0.118327
O	      4.08574      8.35699      6.19399         0.012034      0.051811      0.307247
O	      4.18735      6.18085      8.39493        -0.045395     -0.047667     -0.010338
O	      1.96933      2.21728      2.13746         0.012848     -0.329898     -0.012185
O	      4.14742      4.24864      2.25621         0.056795     -0.316529      0.149641
O	      4.15427      2.12733      4.20020         0.130416     -0.175761      0.032972
O	      6.10959      4.07036      4.32624         0.308172     -0.104448     -0.054504
O	      6.10967      1.97909      6.32616         0.023115     -0.173628     -0.290302
O	      8.22547      4.09724      6.51442         0.102955      0.019694     -0.358189
O	      2.02331      4.17012      4.03748        -0.236566     -0.026654      0.435501
O	      4.00945      6.23288      4.11071         0.147105      0.358801      0.337353
O	      4.14440      4.12267      6.19505        -0.092128     -0.021902      0.047143
O	      6.12703      6.15779      6.44853         0.024426     -0.128944      0.106761
O	      6.08409      4.14610      8.34769        -0.082855      0.121628      0.230564
O	      6.14551      8.07478      8.45322         0.077242      0.082181     -0.001495
O	      6.12041      6.13860     10.30833        -0.149839     -0.075826     -0.130391
O	      8.15155      8.16515     10.48176        -0.097894      0.012540      0.068704
