# total energy = -93.20903584 eV
 
CRYSTAL
PRIMVEC
2.034515 4.202172 2.034334 
2.073863 -4.241952 2.073615 
4.127612 -0.000061 -4.127209 
PRIMCOORD
16 1
Li	      2.11840     -0.01785     -2.09746         0.057539      0.046251     -0.010161
Li	      6.18526     -0.01996     -2.05512        -0.077749      0.010503      0.047130
Li	      2.10926     -2.12735     -0.02436         0.048587     -0.000439      0.014578
Li	      4.13666     -2.10927     -2.03431        -0.006663     -0.045855      0.010660
Mn	      0.01254     -0.02008      0.00924        -0.201027      0.536101      0.351401
Mn	      2.07110      2.11240     -0.02481         0.105917     -0.333197     -0.099089
Ni	      4.12197      2.11257     -2.07602        -0.087939     -0.161045      0.136424
Ni	      4.15721     -0.01898     -0.02699         0.004152      0.045933     -0.085038
O	      6.30404     -0.03192     -0.02667         0.006794      0.010812     -0.056149
O	      4.00607      1.99774     -0.01448        -0.243992     -0.023814      0.059517
O	      4.15629     -0.00624     -2.17389         0.048132     -0.043369     -0.025192
O	      4.13222     -0.19341      2.13242        -0.035465     -0.083708     -0.100118
O	      4.14439     -2.03615      0.12367        -0.124162      0.088504      0.199009
O	      2.06359      2.26013      1.95725         0.194913     -0.168810     -0.234838
O	      1.99689      0.15516     -0.00206         0.088793      0.141846      0.022316
O	      2.17274     -2.29740      2.06612         0.222169     -0.019712     -0.230450
