# total energy = -189.79850382 eV
 
CRYSTAL
PRIMVEC
0.000841 6.101074 6.124201 
6.219979 -0.001133 6.126522 
4.163655 4.086227 -0.018048 
PRIMCOORD
36 1
Li	      4.18621      4.09411      0.06039         0.036095      0.009981      0.120342
Li	      2.08588      6.13621      8.11174        -0.050449     -0.017302      0.028132
Li	      4.09108      2.04211      1.99549        -0.032150      0.051228      0.010250
Li	      6.21137      2.01240      8.12843         0.012115     -0.043369     -0.035367
Li	      8.34759      4.10197      8.09764         0.065188      0.053320     -0.008593
Li	      8.29036      6.10681      6.18824         0.002189     -0.004544     -0.029055
Li	      8.30357      6.10178     10.18429        -0.013048     -0.026401     -0.008070
Li	      4.14456      6.12105      6.14722        -0.020228      0.026837      0.002122
Li	      6.24618      6.10692      8.11313        -0.005182     -0.016882     -0.004657
Mn	      6.22342      4.06079     10.19992         0.109693     -0.019732      0.001450
Fe	      6.19709      8.05406     10.17730         0.003064      0.036229     -0.032471
Fe	      4.13323      4.15193      4.01380        -0.049879     -0.079790      0.034526
Ni	      2.09940      1.99083      0.08058         0.020446     -0.053708     -0.025724
Ni	      8.29762      4.07755      4.06924        -0.031033      0.084835      0.064011
Ni	      2.09109      2.03105      4.02692         0.086775      0.000259     -0.092835
Ni	      6.22965      4.10533      6.17095        -0.030518     -0.015433      0.036698
Ni	      6.22620      8.17704      6.17384        -0.036035      0.037202      0.032373
Ni	      4.14963      4.04944      8.14751         0.017464      0.057466     -0.039857
O	      8.30823      6.28004      8.13460        -0.005456     -0.246894      0.000411
O	      2.09579      2.04757      2.04428        -0.045499      0.020885      0.007162
O	      4.11290      4.09247      2.21743        -0.014921      0.008184     -0.476139
O	      4.21607      2.05259      4.04730        -0.102902     -0.064251      0.011073
O	      6.19736      4.04466      4.10417         0.111866     -0.037813     -0.090195
O	      6.32270      2.07411      6.00678        -0.042003     -0.034594      0.170029
O	      8.23330      3.99419      6.03879         0.057304      0.090722      0.059309
O	      2.00884      4.06870      4.12230        -0.197511      0.091641     -0.054556
O	      4.22320      6.15493      4.04819        -0.087559      0.347575      0.003510
O	      4.14471      4.10239      6.00133         0.014308      0.010037      0.206393
O	      6.25318      6.12498      5.99125         0.002289     -0.004287      0.118048
O	      6.09310      4.07588      8.24799         0.139849     -0.006545      0.119139
O	      2.07092      6.11900      6.14556         0.040482     -0.007439     -0.005398
O	      4.16161      8.15225      5.99276        -0.028128     -0.029631     -0.006115
O	      4.14919      5.95309      8.28653         0.003933      0.175807     -0.090247
O	      6.37893      8.12656      8.21445        -0.083209     -0.028748     -0.090836
O	      6.15945      6.07156     10.22052         0.080542     -0.247464      0.006219
O	      8.37426      8.14937     10.24860         0.072107     -0.117382      0.058919
