# total energy = -198.39894901 eV
 
CRYSTAL
PRIMVEC
-0.029620 6.206629 6.217788 
6.261191 -0.043071 6.231465 
4.145466 4.118237 -0.000118 
PRIMCOORD
36 1
Li	      4.13280      2.10344      2.18390        -0.079657      0.127122      0.009158
Li	      4.08713      0.07835      4.14529        -0.016977     -0.015219      0.040484
Li	      6.15066      2.08359      4.14355        -0.024129      0.026022      0.027262
Li	      2.15274      4.06132      2.10369         0.109187     -0.122694     -0.077800
Li	      2.17671      2.01102      4.19700        -0.019967     -0.007990     -0.039730
Li	      4.14815      4.05904      4.16231         0.006771      0.004607     -0.078502
Li	      6.20449      4.16197      6.10393        -0.002755     -0.062393     -0.051778
Li	      2.12546      4.06168      6.20770        -0.001779     -0.050883      0.080026
Li	      4.18606      6.13536      6.20274         0.062940      0.012837      0.028187
Mn	      4.12198      4.12311      8.27934         0.090869      0.132579     -0.221768
Fe	      8.31320      2.10038      6.21619        -0.048347      0.241785      0.134917
Fe	      4.17294      6.10967      2.09439         0.192813      0.011944     -0.258502
Fe	      0.08378      4.13510      4.19294        -0.426960     -0.136165      0.134576
Co	      2.05862      6.19494      4.15148         0.105857     -0.711523      0.980206
Cu	      6.18439      6.19686      8.25511        -0.168278     -0.008773     -0.043091
Ni	      6.24796     -0.03879      6.21792        -0.129989     -0.034886      0.067867
Ni	      6.23533      4.08852      2.14080        -0.063470      0.108524     -0.050304
Ni	      4.12102      2.01916      6.13033         0.203054     -0.150693      0.121826
O	      6.30507      6.14886      6.32657        -0.160004      0.032128     -0.045383
O	      2.00244      2.03530      1.99346         0.060331      0.122701      0.105274
O	      4.18879      4.17345      2.03707        -0.113649     -0.121271      0.080194
O	      4.15770      2.04845      4.18961        -0.015930      0.026485     -0.241233
O	      6.22843      4.11279      4.07424        -0.012258     -0.010589      0.123188
O	      6.25838      2.02190      6.29918        -0.122807      0.092686     -0.080145
O	      8.35066      4.03061      6.20643        -0.119505      0.333926     -0.017526
O	      1.99634      4.27161      4.15341         0.445895     -0.279405     -0.034206
O	      4.01469      6.23978      4.09100         0.476698     -0.081696      0.154956
O	      4.16644      4.02060      6.41380        -0.039251      0.165130      0.120669
O	      6.09723      4.06043      8.38354        -0.073996      0.107170     -0.087924
O	      8.32134      6.24485      8.39912        -0.020282      0.182239     -0.525448
O	      1.99931      6.33892      6.09658         0.307788     -0.318562      0.256711
O	      4.00471      8.28459      6.15966         0.232256     -0.146931      0.035968
O	      4.15559      6.01313      8.29587         0.023348     -0.083511     -0.013779
O	      6.36311      8.23917      8.30925         0.068405     -0.160783     -0.032982
O	      6.37882      6.11428     10.31180        -0.653124      0.142813     -0.367435
O	      8.35818      8.11647     10.33069        -0.073097      0.633270     -0.233931
