# total energy = -200.48217172 eV
 
CRYSTAL
PRIMVEC
0.032712 6.173669 6.335287 
6.159970 0.031173 6.337910 
4.144326 4.155153 -0.017266 
PRIMCOORD
36 1
Li	      4.20928      6.23005     10.54617         0.021567      0.004872     -0.021983
Li	      4.17159      6.21978      2.17886        -0.020540     -0.006959      0.057463
Li	      8.18313      4.17858      8.46206        -0.063193      0.086301      0.044929
Li	      6.18139      6.27059      4.30956        -0.032773      0.025324      0.124541
Li	      8.21822      6.21741      6.29165        -0.011294      0.059478     -0.008664
Li	      0.06631      4.08776      4.21143         0.032384     -0.025347     -0.014605
Li	      6.17396      8.14524      6.24068         0.027624     -0.060841     -0.060213
Li	      4.20498      6.25155      6.30715         0.032117     -0.022826     -0.047954
Li	      6.24839      6.17747      8.39028         0.090926     -0.040448     -0.049049
Mn	      4.11901      4.12077      4.28466        -0.110906      0.142564      0.174160
Fe	      6.26062      4.28855      6.40522        -0.090008     -0.154212      0.040454
Fe	      8.22915      6.20771     10.48663         0.110405     -0.126755     -0.071691
Fe	      4.17719      4.14784      8.36930        -0.117879     -0.105260     -0.010306
Co	      6.19062      2.12023      4.22263        -0.061277      0.055882     -0.051548
Cu	     10.25098      4.18828      6.30025        -0.073229     -0.074582     -0.008399
Cu	      8.28288      8.27749     12.64023         0.043731     -0.074009     -0.065801
Cu	      2.05188      0.02759      2.12813        -0.025430     -0.012978     -0.042064
Ni	      4.15731      8.23618      8.41765         0.088914     -0.031000      0.112165
O	      1.97000      6.23307      6.07198        -0.006419      0.035326      0.297721
O	      4.10465      8.36103      6.36684         0.047524      0.028148     -0.102051
O	      3.95597      6.16013      8.43152         0.046529      0.008514     -0.032686
O	      2.07696      1.89819      1.96416        -0.108508     -0.005056      0.059542
O	      4.30047      4.13989      2.32522        -0.032473      0.052391     -0.204924
O	      4.24240      2.17462      4.18642         0.067402      0.025733      0.065501
O	      6.06718      4.05720      4.40503         0.098195     -0.057597      0.056103
O	      6.22294      2.04241      6.15466         0.027530      0.011026     -0.073173
O	      8.26507      4.09581      6.37975        -0.072044      0.120966      0.056597
O	      2.20314      4.12560      4.17929         0.075577     -0.037780     -0.048101
O	      4.03643      6.06120      4.26399         0.270858     -0.087033     -0.007491
O	      4.16334      4.10051      6.33163        -0.032975     -0.012755      0.015550
O	      6.22598      6.16342      6.34416        -0.002432      0.105427      0.056872
O	      6.10787      4.13292      8.39887         0.161447      0.026773     -0.051997
O	      8.26567      6.31732      8.59475         0.005093      0.002679     -0.347793
O	      6.25144      8.46045      8.59448        -0.005235     -0.055934      0.163650
O	      6.28516      6.37393     10.41194        -0.302188      0.117080      0.044251
O	      8.17674      8.29787     10.53881        -0.079020      0.082886     -0.049008
