# total energy = -198.40104575 eV
 
CRYSTAL
PRIMVEC
-0.002746 6.215085 6.224880 
6.203179 0.033154 6.188826 
4.151856 4.135805 0.005784 
PRIMCOORD
36 1
Li	      6.26414     10.28884      8.27288         0.036020      0.004775     -0.057138
Li	      4.12753      6.21324     10.28620         0.027202     -0.006785     -0.079444
Li	      6.25793      8.32015     10.24042         0.101245     -0.016669     -0.088285
Li	      2.07454      4.15868      2.12001         0.001680     -0.017366      0.032237
Li	      4.11557      4.14003      4.17450        -0.037333      0.034598      0.024865
Li	      8.24906      6.24440     10.35090         0.013331      0.041882      0.007656
Li	      2.09863      4.22649      6.23823        -0.008300      0.014299      0.048591
Li	      4.10341      6.15906      6.27246        -0.011789     -0.014055      0.052431
Li	      8.23058      8.33228      8.30380        -0.038850      0.002884      0.076865
Mn	      2.07720      2.09925      4.13793        -0.149546      0.080234      0.040206
Fe	      6.24650      6.23337     12.34617        -0.012384      0.195582      0.107393
Fe	      8.30253      8.29373     12.30135        -0.093917     -0.057862      0.254467
Fe	     10.25117      6.20960      8.32233         0.110351     -0.068078     -0.022064
Co	      6.18031      4.17909      6.17856        -0.047017     -0.281409     -0.221353
Ni	      4.18401      8.29181      8.32756        -0.084666      0.089310     -0.033759
Ni	      4.12611      2.11851      6.17825        -0.024282     -0.077031     -0.004858
Ni	      0.01341      4.14919      4.14323        -0.086762     -0.018353     -0.000209
Ni	      6.21337      6.26804      8.33576         0.153001      0.019848     -0.068200
O	      2.03595      2.04435      2.17494        -0.042744      0.019675      0.120542
O	      4.12548      4.19134      1.94766        -0.061245     -0.167804      0.061282
O	      3.97848      2.11468      4.13076        -0.021131      0.002738     -0.029494
O	      6.21246      4.26489      4.30985         0.053816     -0.115335     -0.239125
O	      6.23144      2.17023      6.24051         0.056505     -0.861624     -0.049444
O	      8.18811      4.13017      6.20673         0.188224      0.014618     -0.011377
O	      2.02085      3.98307      4.18816         0.080551     -0.068244      0.008509
O	      4.25734      6.23495      4.06790         0.082436     -0.133948      0.198874
O	      4.34633      4.11288      6.20257        -0.301715      0.109916      0.062783
O	      6.23556      6.07925      6.12759        -0.003904      1.259913     -0.152429
O	      6.21167      4.14969      8.12725         0.027165      0.033738      0.345559
O	      8.30742      6.23050      8.23347        -0.116144     -0.002803      0.084904
O	      1.99845      6.30750      6.23381         0.107403     -0.152194     -0.009918
O	      4.07344      8.36079      6.27290         0.092050     -0.074124     -0.004598
O	      4.24783      6.33227      8.28664        -0.128353     -0.068289      0.012909
O	      6.16944      8.23247      8.28020         0.159015      0.149626     -0.027287
O	      6.21274      6.21414     10.42235        -0.000247      0.099704     -0.082644
O	      8.33938      8.30856     10.42180        -0.019662      0.028634     -0.358449
