# total energy = -202.77590944 eV
 
CRYSTAL
PRIMVEC
-0.017011 6.201916 6.277462 
6.136494 -0.009997 6.270450 
4.096720 4.135845 -0.012561 
PRIMCOORD
36 1
Li	      4.11486     10.30178      6.27316        -0.033333     -0.015322      0.022266
Li	     10.16636      6.24807      8.35952        -0.046431      0.032414     -0.031858
Li	      6.13023      6.15966      4.28185         0.037994      0.026662      0.062275
Li	      4.10838      4.15198      4.28006        -0.023643     -0.034460      0.064371
Li	      4.06021      2.16923      6.24927         0.000061      0.040878     -0.095176
Li	      6.16647      8.23789      6.27436         0.038033     -0.038616      0.032427
Li	      4.14826      6.11841      6.25392         0.031532     -0.037867      0.042117
Li	      4.11662      4.06994      8.24391         0.018153     -0.015719     -0.125767
Li	      6.13469      6.19515      8.24671        -0.045753      0.046696     -0.130332
Mn	      4.10192      8.27301      8.35240         0.067009     -0.125911      0.075694
Fe	      2.01925      8.21121      6.29632        -0.048681      0.063715     -0.018902
Fe	      4.10509      0.05046      4.16998         0.091623     -0.017949      0.095219
Fe	      8.15456      4.20525      8.37139         0.292545     -0.054971     -0.147999
Co	      6.07407      4.18395      6.25705         0.373070      0.026216      0.247695
Co	      2.05736      6.19716      4.17843         0.089059     -0.051497      0.150046
Cu	      4.10476      8.24868      4.18102         0.083052     -0.081287      0.041201
Ni	      6.09619      4.12411      2.08714        -0.016839      0.017323     -0.137684
Ni	      6.12139      8.25449     10.44769        -0.032286     -0.045658      0.016531
O	      6.16299      6.01351      6.23719        -0.170608      0.040296     -0.019624
O	      2.13199      2.08471      2.06682        -0.074733      0.114018      0.071301
O	      4.05223      4.00394      2.08225        -0.131466      0.047605      0.024939
O	      4.11400      2.00216      4.05707        -0.092101      0.107749     -0.050059
O	      6.21221      4.09918      4.22233        -0.037100      0.005829      0.271931
O	      6.19835      2.20026      6.22486        -0.216568     -0.129804      0.073657
O	      8.10246      4.09474      6.22841         0.189766      0.080093      0.031477
O	      1.97416      4.26837      4.12966         0.000995      0.114148      0.053735
O	      3.90521      6.29479      4.17195        -0.168096     -0.001206     -0.037225
O	      4.25456      4.10582      6.27732        -0.295788      0.160738     -0.059596
O	      6.20621      4.12636      8.15617        -0.202720     -0.136282     -0.346298
O	      8.17207      6.15391      8.57595         0.001180      0.123444      0.089249
O	      1.99724      6.24884      6.12781        -0.004130     -0.097685     -0.124765
O	      4.01679      8.24821      6.46699         0.094812      0.011998     -0.043159
O	      4.02064      6.31343      8.46488         0.124652      0.034685     -0.022922
O	      6.00423      8.30501      8.37409        -0.043769     -0.105260     -0.039005
O	      6.15903      6.13561     10.47499         0.142958     -0.050384      0.000694
O	      8.21819      8.21614     10.48160         0.007548     -0.054630     -0.036453
