# total energy = -202.95935605 eV
 
CRYSTAL
PRIMVEC
0.049039 6.190519 6.423041 
6.137852 0.067360 6.406212 
4.081010 4.104060 0.053873 
PRIMCOORD
36 1
Li	      4.06150      4.13041      0.11364        -0.028612      0.013639     -0.015937
Li	      6.05812      4.13506      2.30010         0.068752      0.028904     -0.025264
Li	      4.13016      2.11320      2.21431        -0.023755     -0.077371     -0.032104
Li	      6.09095      2.09309      4.29466        -0.037998      0.065363     -0.063163
Li	      2.09465      4.13139      2.17310        -0.030143     -0.085231     -0.036046
Li	      4.09687      4.08028      4.14863         0.062726     -0.082169      0.024684
Li	      4.13091      2.10391      6.25905         0.015453      0.001038      0.041503
Li	      4.14402      8.26481      4.40502        -0.021011      0.031047     -0.062679
Li	      6.16880      6.23799      8.67528        -0.024783     -0.003790     -0.039147
Mn	      6.16310      4.14873      6.42538        -0.033794     -0.071929      0.185829
Fe	      4.27490      6.33006     10.67812        -0.234960     -0.155105     -0.045572
Fe	      6.08675      8.25569      6.46230         0.124986     -0.101772      0.308694
Fe	      8.14546      8.29127      8.68149         0.098684      0.035713     -0.195056
Co	      4.07548      6.11235      2.21245         0.549486      0.209255     -0.232252
Co	      8.20322      6.23161     10.68723        -0.184024     -0.070448      0.081121
Cu	      2.12569      8.21410      6.49398        -0.048683      0.046120      0.213731
Cu	      4.12177      6.20349      6.48795        -0.017338      0.026023      0.116848
Ni	      2.06659      2.09881      4.21278        -0.057257      0.065189     -0.196726
O	      2.15006      6.20064      6.22009        -0.015137     -0.049469      0.004258
O	      4.11416      8.17090      6.50871        -0.011818      0.011626     -0.079354
O	      1.90938      2.06742      2.16610        -0.166285     -0.048669      0.166010
O	      4.08063      4.31463      2.12765        -0.079182      0.022508      0.030283
O	      4.07845      2.05277      4.25122         0.155455      0.122918      0.078875
O	      6.19297      4.14062      4.51698        -0.029929     -0.090600     -0.034053
O	      6.18381      2.21962      6.58026        -0.150032      0.056054      0.071693
O	      8.08889      4.08887      6.36674        -0.054811      0.225319      0.019229
O	      2.07056      4.20346      4.46025         0.052627     -0.035032     -0.340517
O	      4.04133      6.19817      4.06273         0.422359      0.002787     -0.199850
O	      4.17867      4.19461      6.51831         0.130791     -0.050757     -0.204706
O	      6.11436      6.14440      6.37524         0.071406     -0.121195      0.123935
O	      6.12352      4.07377      8.37911        -0.051781     -0.094412     -0.012896
O	      8.28479      6.26414      8.74405        -0.167384     -0.255037     -0.007766
O	      4.11865      6.12447      8.74325         0.051517      0.204433     -0.011946
O	      6.20971      8.26867      8.38379        -0.109638     -0.004380      0.219217
O	      6.22524      6.24836     10.73584        -0.272208     -0.021702      0.049889
O	      8.21484      8.19396     10.67581         0.046318      0.251130      0.099235
