# total energy = -202.21101917 eV
 
CRYSTAL
PRIMVEC
0.005076 6.098583 6.442869 
6.138470 0.016138 6.430333 
4.105618 4.071276 -0.001961 
PRIMCOORD
36 1
Li	      4.06752      4.05185      0.13915         0.034834     -0.048725      0.190690
Li	      2.03490      6.10468      8.48119        -0.036651     -0.029230      0.021999
Li	      4.06978      8.14640      8.46970         0.142561     -0.033579      0.019960
Li	      4.12610      6.05753     10.58548        -0.050460     -0.028177     -0.125957
Li	      6.15658      2.02248      8.43031        -0.045501      0.032527      0.021887
Li	      6.17937      4.09294      6.48705        -0.025356      0.026487      0.069655
Li	     10.16919      8.22237     10.86612        -0.017936     -0.030471     -0.031432
Li	      6.11615      8.13514      6.56722         0.034954     -0.014271      0.084683
Li	      4.11004      4.06580      8.52053         0.002507      0.022463      0.013107
Mn	      2.05309      2.02411      4.24411        -0.033731     -0.101863     -0.077699
Fe	      6.17123      2.05237      4.32695        -0.150898      0.309073     -0.773514
Fe	      4.11685      4.04863      4.23904         0.069485      0.084567     -0.175291
Fe	      2.02207      6.14652      4.38045         0.322463     -0.102611     -0.224872
Co	      2.04776      4.08140      2.19846        -0.236586      0.292280      0.202741
Co	      6.12665      6.09586      8.62475         0.043606      0.049258      0.317550
Cu	      2.07767      2.09789      0.05145        -0.103466      0.029766      0.090053
Cu	      4.13077      2.03545      6.46143        -0.096449      0.029152      0.080842
Cu	      4.13824      6.10165      6.47653         0.062867     -0.066463      0.102527
O	      2.11493      6.13599      6.35508        -0.274924      0.043252      0.075667
O	      4.01845      8.09057      6.47135        -0.063132      0.158440     -0.072737
O	      4.26086      6.04187      8.41837         0.272447      0.004328      0.204340
O	      1.98391      2.15335      2.33012         0.032740      0.030479     -0.422146
O	      3.98346      4.11159      2.26519        -0.109612     -0.064938     -0.040247
O	      4.04021      2.02763      4.20497         0.040759     -0.045719      0.197373
O	      6.14081      4.10143      4.14106        -0.019641      0.019728      0.113269
O	      6.17196      2.08302      6.30204         0.069115     -0.063584      0.259604
O	      8.21855      4.12273      6.72700        -0.030490     -0.115848     -0.075199
O	      2.05904      4.03148      4.18278         0.004430      0.086621      0.004995
O	      4.16141      6.08318      4.40615         0.004582     -0.025665     -0.049438
O	      4.10803      4.02361      6.28485        -0.014625      0.009880     -0.026509
O	      6.18321      6.11329      6.26659         0.224809     -0.015985      0.579513
O	      6.25391      4.29893      8.59362         0.188909     -0.369253     -0.104609
O	      8.11908      6.03412      8.75918        -0.112588     -0.139825     -0.181151
O	      6.15910      7.91747      8.64335        -0.098249      0.183792      0.253565
O	      6.17135      6.15982     10.71814        -0.250512     -0.216796     -0.772560
O	      8.12581      8.11174     10.63522         0.219742      0.100910      0.249339
