# total energy = -201.70522445 eV
 
CRYSTAL
PRIMVEC
0.013557 6.242965 6.225321 
6.147078 0.018620 6.220289 
4.096835 4.157364 0.013607 
PRIMCOORD
36 1
Li	      4.14805     10.32509      6.25814        -0.021096     -0.010588      0.058958
Li	      2.04272      6.23331      8.22360        -0.005392     -0.017680     -0.020632
Li	      6.17529      8.28708     10.37780         0.004598      0.031311      0.002162
Li	      6.15099      2.08101      8.27443         0.005679      0.001426      0.007034
Li	      4.12854      2.07159      6.22613        -0.001679     -0.000220     -0.016254
Li	      4.11715      8.34505      4.23168         0.040405     -0.039081      0.051062
Li	      6.07928      8.35092      6.25983         0.029841     -0.016308     -0.015897
Li	      4.07550      6.31359      6.21711         0.040436     -0.064745     -0.008085
Li	      6.14974      6.27818      8.34325        -0.027922      0.003044     -0.018137
Mn	      8.13837      6.28505     10.41608         0.137811      0.028373     -0.081279
Fe	      4.10183      4.16237      4.12172         0.041393      0.001361      0.226506
Fe	      6.14926      4.14655      6.22774        -0.089018      0.279404     -0.109613
Fe	      8.11063      8.33893      8.25504         0.269316      0.031688     -0.053751
Co	      4.22467      6.25008     10.37787        -0.038636      0.050923     -0.002347
Co	      6.10929      6.24639      4.15180        -0.043520      0.010424     -0.026239
Ni	      2.09126      8.31292      6.26629        -0.075107     -0.009090     -0.001118
Ni	      4.16674      8.32411      8.28502         0.141691     -0.078031      0.190762
Ni	      8.19317      4.23075      8.28837        -0.054151      0.080416     -0.036856
O	      2.07560      2.17073      2.21562         0.009554     -0.131189      0.049274
O	      4.08013      4.13806      2.17711         0.094395      0.006291     -0.198614
O	      4.04880      2.12641      4.09514        -0.200311     -0.202876      0.025393
O	      6.13399      4.16959      4.23154         0.107926     -0.006413     -0.029817
O	      6.24223      2.29781      6.23642         0.026766     -0.367846     -0.025129
O	      8.19666      4.12758      6.17951         0.137561     -0.036114     -0.136137
O	      2.07000      4.25138      4.15898        -0.134675      0.093472      0.084986
O	      4.07872      6.14348      4.15955         0.041791      0.192483      0.013867
O	      4.13566      4.10293      6.21873        -0.101807      0.025958     -0.105554
O	      6.16518      6.06418      6.03352         0.013557      0.096967     -0.002829
O	      6.08807      4.23036      8.13228         0.009700      0.002393      0.190034
O	      8.18073      6.30775      8.44326         0.033031      0.034877      0.100975
O	      2.02957      6.34146      6.08947         0.025040     -0.052954     -0.021876
O	      4.03118      8.27973      6.36565         0.024172      0.046991     -0.231390
O	      4.10707      6.17551      8.45285        -0.016258      0.072419     -0.028420
O	      6.24164      8.33299      8.22710        -0.448925     -0.020593      0.081031
O	      6.21804      6.26223     10.41257        -0.007033     -0.050221     -0.017474
O	      8.24778      8.24352     10.31746         0.030867      0.013726      0.105404
