# total energy = -205.57846288 eV
 
CRYSTAL
PRIMVEC
-0.013552 6.115142 6.289775 
6.212899 -0.018055 6.294275 
4.130239 4.067983 -0.000219 
PRIMCOORD
36 1
Li	      8.20210      2.06586      6.31542         0.019839     -0.043748     -0.003983
Li	      4.13448      2.01549      2.23972         0.035239     -0.050569     -0.013254
Li	      4.05627      0.08956      4.19821         0.081865     -0.027644     -0.031727
Li	      6.19318      2.02666      8.36673         0.047009     -0.018522     -0.014862
Li	      2.20769      1.96531      4.23939        -0.025189     -0.012907      0.043427
Li	      4.19654      3.97175      4.25288         0.044244      0.075600      0.118520
Li	      4.14950      1.98954      6.15337         0.112855      0.026653     -0.066653
Li	      6.21446      4.08928      6.23887        -0.195857      0.066471     -0.060225
Li	      6.19592      6.10102      8.34723        -0.123750      0.003050     -0.090290
Mn	      2.06736      4.04985      2.10137        -0.005203     -0.062285      0.125966
Fe	      2.07575      0.12147      2.18218         0.050258     -0.087455     -0.128064
Fe	     10.28330      8.11382     10.45699        -0.027205     -0.098567      0.215274
Fe	      6.24848      8.06173      6.34308        -0.183826      0.109420      0.022033
Co	     10.25379      4.13457      6.32448         0.069113     -1.080380     -0.145351
Co	      2.07042      6.10023      4.20328         0.089496      0.049015      0.031012
Co	      4.12744      6.11894      6.29356         0.024942     -0.039399      0.042072
Cu	      6.15076      2.02994      4.16764        -0.004329     -0.045908      0.228712
Ni	      4.17024      4.04975      8.35581         0.038767     -0.009901     -0.036433
O	      6.05916      6.16619      6.26569        -0.134392     -0.219391      0.011922
O	      2.04363      2.07956      2.13663        -0.009192      0.144353     -0.010965
O	      4.07138      4.07440      2.01656        -0.089733      0.227062     -1.071588
O	      4.21982      1.99586      4.20427        -0.179014      0.017160     -0.014286
O	      6.20882      3.99715      4.08381         0.072376      0.046218      0.142465
O	      6.21161      1.88737      6.16404        -0.153180      0.010345      0.221771
O	      8.27584      4.04013      6.48715         1.276290      0.299822      0.028143
O	      2.03151      4.15535      4.14819         0.049712      0.068107     -0.191145
O	      3.99529      6.14434      4.34545        -0.121487     -0.026376      0.037071
O	      4.09819      4.17119      6.33092        -0.027180      0.246379     -0.160926
O	      6.31088      4.04092      8.47251         0.179425      0.013359     -0.064472
O	      8.29084      6.00593      8.56915        -0.003953     -0.118539      0.139302
O	      2.12705      6.07616      6.23256        -0.813312      0.015292     -0.137629
O	      4.19378      8.15887      6.18733        -0.029462      0.308831     -0.044434
O	      4.04500      6.09552      8.22449         0.093725      0.152884     -0.135371
O	      6.21218      8.21173      8.35069        -0.049454      0.028698     -0.106337
O	      6.31497      6.08221     10.51446        -0.145819      0.150328      1.105072
O	      8.28310      8.02815     10.42012         0.036381     -0.117456      0.015232
