# total energy = -204.68415432 eV
 
CRYSTAL
PRIMVEC
-0.046004 6.195902 6.268689 
6.173747 -0.004148 6.226842 
4.118583 4.105474 -0.005503 
PRIMCOORD
36 1
Li	      4.08169      2.12484      2.15859         0.013252      0.007090      0.117878
Li	     10.20978      6.19564      8.37604         0.021245     -0.013900      0.106268
Li	      8.18557      4.19399      8.40969        -0.007052      0.052684     -0.014481
Li	      1.94959      2.11567      4.11679         0.029464     -0.089641     -0.036218
Li	      4.08664      4.16719      4.09760         0.092463     -0.052574     -0.021134
Li	      8.23203      6.18580      6.31795        -0.017871     -0.016882     -0.125550
Li	      6.12858      4.12212      6.36887         0.022214      0.023399      0.012254
Li	      8.29601      6.12718     10.22476        -0.026130      0.045440      0.039175
Li	      6.27308      6.09542      8.28455        -0.019193      0.025628     -0.001361
Mn	      2.05404      4.08065      6.17782         0.071995     -0.166424     -0.165525
Fe	     10.23833      4.16204      6.31681        -0.017930     -0.110253     -0.176256
Fe	      2.03320      2.07987      0.11015         0.155932     -0.013532     -0.117247
Fe	      4.09688      0.06100      4.10312        -0.072994      0.094657      0.017469
Co	      6.14135     10.26419      8.31588        -0.017167      0.047318      0.249975
Co	      6.12997      8.22333     10.40058        -0.232022      0.063442      0.270342
Co	      4.10817      6.17691      6.22620         0.013933     -0.071834     -0.140403
Ni	     -0.00547      4.06872      4.10755        -0.037806      0.130083     -0.064029
Ni	      4.11644      4.06932      8.29568        -0.048022      0.060947      0.049732
O	      8.21979      6.30466      8.28822         0.042465     -0.206222     -0.013059
O	      2.10051      1.89775      2.01134        -0.090004     -0.021213      0.028551
O	      4.24744      4.09083      1.98521         0.062327      0.052458      0.089049
O	      4.25260      1.97382      4.12797         0.277697      0.132169      0.048188
O	      6.21705      3.97667      3.97629        -0.039036     -0.328078     -0.020810
O	      6.23808      2.01963      6.18848        -0.200786      0.150650     -1.118518
O	      8.25687      4.04978      6.21461        -0.001718      0.028177      0.091453
O	      2.00801      4.14236      4.30360         0.147524      0.016459      0.254780
O	      4.07688      6.21222      4.36031        -0.012497     -0.203454      0.151210
O	      3.97354      4.24712      6.22494        -0.199464     -0.028312     -0.109202
O	      6.02188      6.30747      6.25038         0.055283      0.168578     -0.051116
O	      6.01780      4.12257      8.36334         0.156290     -0.018546     -0.191943
O	      2.07039      6.14506      6.36624        -0.074951     -0.097480     -0.039554
O	      4.13643      8.20404      6.22668         0.102120      0.002610      0.121052
O	      3.98674      6.05170      8.28274        -0.055136      0.035112     -0.130202
O	      6.23411      8.30702      8.21562        -0.070796      0.021017      0.646541
O	      6.07677      6.24527     10.50121         0.092027      0.311699      0.130773
O	      8.10357      8.28543     10.48560        -0.115656     -0.031271      0.111918
