# total energy = -207.46931957 eV
 
CRYSTAL
PRIMVEC
-0.016391 6.227153 6.302669 
6.093461 0.025433 6.260286 
4.081799 4.143088 -0.002270 
PRIMCOORD
36 1
Li	      4.00880     10.26107      6.30717         0.014057     -0.040669     -0.041209
Li	      8.15303      2.16369      6.28060         0.016818      0.003267     -0.014860
Li	      4.03203      2.14291      2.07226         0.007722     -0.005942      0.002326
Li	      8.17789      4.16723      4.28866        -0.018838     -0.014791      0.010322
Li	      2.10595      4.06120      2.05067        -0.000792      0.032126      0.029072
Li	      4.03714      4.10127      4.15269        -0.037995      0.052107      0.012943
Li	      8.14902      6.16702      6.26131         0.005527      0.017337      0.047142
Li	      8.06414      6.22995     10.49792         0.017495     -0.078806     -0.012669
Li	      1.97099      4.22592      6.21092        -0.013939      0.040622     -0.051205
Mn	      8.13484      8.31330      8.39912         0.282604     -0.246252     -0.083010
Fe	      6.03479      4.15716      2.06032         0.275040     -0.126291     -0.082368
Fe	      2.18063      2.11405      4.18425        -0.351692      0.057299      0.126949
Fe	      3.99396      6.30719      6.21937         0.069809     -0.075406      0.006312
Co	      4.04799      6.12198      2.04672        -0.181064     -0.038668      0.033941
Co	      6.17131      4.15153      6.27535         0.049558     -0.009020      0.018547
Co	      6.09122      4.21278     10.48290         0.034243     -0.112136      0.058526
Co	      6.12029      6.25138      8.38610         0.149704     -0.071685      0.143750
Cu	      6.04127      2.06296      4.25516         0.074574     -0.018347      0.220234
O	      7.98726      4.16272      6.31398        -0.053874     -0.008202     -0.040425
O	      2.00443      1.99498      2.18032         0.020983     -0.005388     -0.037392
O	      4.08664      4.18839      2.06761        -0.078189      0.057284      0.014369
O	      4.06976      2.11165      4.18357         0.237331     -0.048937      0.016919
O	      6.09569      4.16382      4.08964         0.005942      0.050338      0.143376
O	      6.09704      2.23856      6.45409         0.011933      0.130642     -0.118415
O	      1.92987      4.06434      4.19786        -0.040753      0.078985      0.012830
O	      4.10835      6.34915      4.15340         0.054283      0.064160      0.033443
O	      4.22369      4.23252      6.42859         0.034929      0.000397      0.006805
O	      6.07926      6.11648      6.33700         0.070648     -0.047148     -0.550929
O	      6.00246      4.27325      8.52337        -0.147721     -0.495739      0.055085
O	      8.08400      6.39583      8.37902         1.098686      0.259520     -0.115801
O	      2.06811      6.21449      6.39693        -0.139032      0.040853     -0.101442
O	      4.05450      8.25364      6.13969        -0.009654      0.091412     -0.070143
O	      4.13130      6.14911      8.29755        -1.155353     -0.119617     -0.060640
O	      6.23441      8.22843      8.30337        -0.098670      0.578993     -0.001171
O	      6.09932      6.19864     10.29996        -0.131166     -0.042406      0.406054
O	      8.14375      8.33388     10.30616        -0.073152      0.050107     -0.017266
