# total energy = -208.54248259 eV
 
CRYSTAL
PRIMVEC
-0.052207 6.199674 6.182885 
6.163907 0.004630 6.126808 
4.113662 4.099447 -0.001152 
PRIMCOORD
36 1
Li	      6.06024      0.20413      6.18227        -0.084567      0.053554      0.024956
Li	      8.08759      2.10891      6.22702         0.006385      0.054749     -0.029017
Li	      6.10106      2.07904      4.21100        -0.057798      0.000531      0.030334
Li	      0.03094      2.00631      1.98588         0.039181     -0.004817      0.023838
Li	      2.11782      4.05524      2.00838         0.018130     -0.026553      0.007983
Li	      2.02935      2.06582      4.06756         0.056942     -0.016717     -0.006316
Li	      4.14920      4.08109      4.01804        -0.007027      0.030814      0.047408
Li	      4.17291      2.00988      6.15950         0.031855     -0.004577     -0.126547
Li	      6.15683      6.18408      8.17969        -0.024860      0.023888     -0.008535
Mn	      8.18470      8.23081      8.21232        -0.004512      0.068052     -0.096165
Fe	      4.01300      2.14962      2.09940         0.237514     -0.265200     -0.229930
Fe	      6.24743      4.04093      6.08633        -0.050602      0.208601      0.043940
Fe	      8.11226      6.13344     10.25276        -0.017792      0.124370      0.097205
Co	      4.14779      0.03627      4.11356        -0.087027     -0.037936      0.187390
Co	     10.23160      8.23460     10.25249         0.070441     -0.129642      0.037739
Co	      6.14663      8.17892      6.13411         0.028854      0.014994      0.019067
Co	      4.09707      6.18267      6.14310         0.004719     -0.075096      0.026104
Ni	      6.11641      4.14833      2.05871         0.014247     -0.101055     -0.053398
O	      2.12839      2.04024      2.01222        -0.193390      0.285990      0.005430
O	      4.12279      4.03653      2.05397        -0.240907      0.222120      0.056619
O	      4.16900      1.91388      4.00125         0.029172      0.150154      0.158909
O	      6.32599      4.12193      4.11104        -0.038936     -0.070593     -0.034465
O	      6.14116      2.17442      6.15122        -0.008090     -0.116699      0.023112
O	      8.17709      4.14753      6.01606         0.175799     -0.060200      0.037962
O	      1.89730      4.15212      4.19709        -0.107210     -0.093576      0.056445
O	      3.99469      6.27286      4.24525         0.012290      0.096500      0.050378
O	      4.03616      4.22162      6.24342        -0.048310      0.058562      0.087369
O	      6.01024      6.21793      6.14486        -0.078002      0.043555      0.006472
O	      6.00013      4.15299      8.27285        -0.096767      0.022993     -0.022144
O	      8.16538      6.33897      8.30221        -0.032563      0.043902     -0.093946
O	      2.13356      6.06026      6.13264         0.093137     -0.083717     -0.023226
O	      4.22358      8.08714      6.10074         0.049070     -0.024173      0.038339
O	      4.05092      6.12816      8.20457         0.108348     -0.060522     -0.124630
O	      6.20792      8.25021      8.07461         0.022173     -0.088381     -0.053991
O	      6.06742      6.06881     10.31163         0.141300     -0.091934     -0.056056
O	      8.26567      8.30771     10.16473         0.038804     -0.151943     -0.108632
