# total energy = -194.02192436 eV
 
CRYSTAL
PRIMVEC
0.022388 6.126400 6.206309 
6.224943 0.039428 6.190254 
4.181812 4.106050 -0.006245 
PRIMCOORD
36 1
Li	      2.11181      8.12198      6.17291         0.023868      0.013437      0.021613
Li	      4.24388      8.16427      8.27173         0.058669     -0.157636     -0.110404
Li	      6.27405      8.17172     10.27205         0.092075     -0.014505     -0.121788
Li	     10.39480      6.18284      8.24911        -0.063417      0.157928     -0.107893
Li	      8.32987      6.18259      6.20639        -0.012280     -0.110951      0.181502
Li	      8.31818      6.23834     10.32283        -0.030973      0.119825     -0.046663
Li	      4.19779      6.14574      6.24799        -0.031733      0.105601      0.230595
Li	      8.24394      8.21511      8.25951        -0.012402     -0.007651      0.119613
Li	      6.27918      6.25085      8.23344         0.027446     -0.002832     -0.151029
Mn	      4.19436      8.17065      4.13783        -0.539574      0.549457     -0.138861
Fe	      4.18781      6.18442     10.23832         0.006597     -0.760924      0.310832
Fe	      8.36290      4.18671      8.22674        -0.618813     -0.033263     -0.164455
Fe	      6.15344      4.04295      6.22822         0.932495      0.304827      0.429712
Cu	      6.25745      0.10824      6.20745        -0.421301      0.049242     -0.264073
Ni	      2.10088      6.11415      8.24155         0.235373      0.077713      0.091909
Ni	      6.26559      6.16265      4.13807         0.022886     -0.074694      0.141943
Ni	      4.17598      4.10342      4.14326        -0.123543     -0.264380      0.125608
Ni	      6.29207      8.19127      6.25694         0.041288     -0.192971     -0.024402
O	      1.98790      6.12655      6.25819         0.118616      0.150956     -0.179230
O	      2.09767      2.16154      2.21874         0.030003     -0.116543     -0.554999
O	      4.10326      4.10961      2.06484         0.573918      0.007917      0.421532
O	      4.01639      2.02529      4.14747         0.586029      1.332518     -0.017968
O	      6.25121      4.09334      4.14686        -0.330305      0.208615     -0.013971
O	      6.24454      2.18421      6.17250        -0.076420     -0.908615     -0.064751
O	      8.29902      4.09328      6.20894         0.238645      0.119378     -0.143812
O	      2.04069      4.11898      4.13611         0.269303     -0.171830     -0.012191
O	      4.31188      6.24409      4.13267        -0.556483     -0.660297     -0.010770
O	      4.22806      4.10311      6.15671        -0.560447      0.127246     -0.677178
O	      6.25768      6.07368      6.05812        -0.038338      0.021342      0.410155
O	      6.36599      4.14455      8.29994        -0.313926     -0.097161      0.225970
O	      8.33228      5.98871      8.27240         0.103040      0.353757      0.016802
O	      4.24967      8.19737      6.03803        -0.220463      0.259200     -0.206484
O	      4.11202      6.16667      8.37175         0.081200      0.091066     -0.664015
O	      6.26914      8.22490      8.20676        -0.081427     -0.014662      0.555665
O	      6.18365      6.08175     10.37827         0.247819     -0.159092      0.360554
O	      8.53200      8.26960     10.29664         0.342576     -0.302017      0.030930
