# total energy = -194.43335150 eV
 
CRYSTAL
PRIMVEC
0.005996 6.467809 6.047335 
6.055557 -0.007806 6.061764 
4.031861 4.316849 -0.000595 
PRIMCOORD
36 1
Li	      6.04006      0.09559      6.05387        -0.041396      0.118528      0.048167
Li	      8.02077      2.24272      6.02079         0.009299     -0.003029     -0.042363
Li	      6.04358      2.27325      8.02302         0.073218     -0.017882     -0.069874
Li	      4.02196      4.35203      4.12235        -0.050138      0.061900     -0.062865
Li	      4.05713      2.25564      6.01811         0.038292     -0.040277      0.110619
Li	      6.02232      4.14363      6.01655        -0.010258     -0.038444      0.122606
Li	      4.02496      8.54736      4.03343         0.020377     -0.022646     -0.094293
Li	      4.10672      6.40496      6.01418        -0.038854     -0.048711     -0.012408
Li	      6.04123      6.40721      8.02043         0.081036     -0.143909      0.059712
Mn	      2.08528      6.46880      4.04969        -0.202233     -0.034192     -0.166186
Fe	      1.99309      0.00065      1.99813        -0.362378      0.209452     -0.102129
Fe	      4.01711      2.16045      2.02335         0.004255      0.046284     -0.248879
Fe	      7.99783      4.41255      7.96560         0.231565      0.184440      0.313633
Cu	      8.12334      4.29765      4.14238         0.094804     -0.121382      0.173195
Cu	      5.98453      6.48590      4.08547        -0.132965     -0.022375     -0.115899
Ni	      6.06891      2.12461      4.11465         0.122692      0.029421      0.095639
Ni	      6.06506      8.59800      6.03690         0.449639     -0.011051     -0.225013
Ni	      4.11941      4.23772      8.04726         0.153799      0.041871      0.118727
O	      3.90690      4.32656      6.13516         0.691833      0.087632     -0.408889
O	      6.07753      6.71989      5.96034        -0.159262     -0.834798     -0.283740
O	      2.06884      2.07320      2.06284        -0.898525     -0.171997      0.275739
O	      3.98333      4.10889      2.00722         0.311159      0.828284      0.007539
O	      3.94681      2.22777      3.88166        -0.251824      0.071747      0.777701
O	      6.16272      4.11125      4.01106         0.185674      0.114763      0.163243
O	      6.04979      2.12715      5.95947        -0.033156      0.079994      0.101601
O	      8.06678      4.30657      6.12196         0.055465     -0.115995     -1.147831
O	      1.97424      4.55177      3.92206         0.013313     -0.137888      0.615238
O	      4.00697      6.44210      3.99958         0.399549      0.047710      0.233831
O	      6.14569      4.31744      8.00961        -0.531848      0.060978      0.057926
O	      8.10128      6.44240      8.18762        -0.077094      0.010743     -0.053854
O	      2.03156      6.26501      6.03799        -0.053449      0.709227      0.058148
O	      4.14433      8.55041      6.24987        -0.709500      0.014755     -0.602467
O	      4.00573      6.58633      8.18912         0.144014     -0.747186      0.258343
O	      6.00448      8.71821      8.18320         0.662550     -0.112183     -0.292952
O	      6.08127      6.64138     10.12500        -0.364280     -0.210378     -0.046326
O	      8.11153      8.38859     10.04320         0.174628      0.116596      0.384361
