# total energy = -195.36616908 eV
 
CRYSTAL
PRIMVEC
-0.005004 6.257189 6.190956 
6.168807 -0.003976 6.189720 
4.110978 4.169127 -0.000994 
PRIMCOORD
36 1
Li	      0.03814      6.23415      6.19810        -0.036467     -0.005219      0.123543
Li	      6.13169      4.20267      2.14333        -0.054028     -0.008721      0.069454
Li	      6.15578      2.11197      4.15959         0.007446      0.062832      0.027066
Li	      4.11898      6.26744      2.09255         0.029248     -0.009464     -0.022642
Li	      2.08585      4.13407      2.10242         0.054922     -0.024654     -0.057120
Li	      6.12595      6.17402      4.08811        -0.054410     -0.026721     -0.019607
Li	      4.13995      4.23915      4.03898         0.076128      0.062609     -0.050545
Li	      4.07355      6.27990      6.11022         0.029580     -0.067441     -0.020912
Li	      6.17131      6.23708      8.30192        -0.033944      0.012990     -0.037584
Mn	      4.15001      2.08660      6.17504        -0.014269     -0.033492      0.244308
Fe	      4.09119      2.12605      2.10884         0.010066     -0.201777      0.133904
Fe	      6.12462      8.33452      6.15936         0.005688     -0.103296     -0.048833
Fe	      8.21784      8.39003      8.30735        -0.178797      0.207252     -0.188758
Cu	      2.03275      8.27244      6.21855        -0.000875     -0.175270      0.269237
Cu	      6.16758      4.20560      6.18759        -0.049973      0.025254     -0.045182
Cu	      2.04980      6.21366      4.10485        -0.217636      0.030141     -0.316247
Ni	      4.13539      0.02827      4.15038         0.003550      0.140477     -0.070969
Ni	      0.00585      4.13463      4.09096         0.128809     -0.127889     -0.061179
O	      6.03440      4.21855      8.19455         0.156076      0.011222      0.057354
O	      2.06225      6.13222      6.06429        -0.084988      0.322992      0.101511
O	      6.10240      6.15923     10.33992         0.700292      0.109003      0.039424
O	      2.15229      2.06494      1.94888        -0.147098     -0.048677      0.026398
O	      4.12978      3.94284      2.08587        -0.004390      0.398293     -0.052420
O	      4.15127      2.06005      4.17708         0.064785      0.036337     -0.067877
O	      6.32062      4.18015      4.22634        -0.518888     -0.125998      0.085491
O	      6.08148      2.15247      6.22017         0.062102      0.098521     -0.062763
O	      8.17331      4.33957      6.15900         0.081700     -0.043133      0.336904
O	      2.02195      4.25490      4.16299         0.004054     -0.248204      0.109187
O	      4.01452      6.29213      4.07994         0.025002      0.048689     -0.023910
O	      4.10494      4.07454      6.22321        -0.072521      0.008570     -0.013450
O	      6.30667      6.31306      6.13881         0.080843      0.028301      0.028372
O	      8.19864      6.36194      8.17020        -0.013740     -0.026452      0.216225
O	      4.14086      8.26583      6.25184        -0.020045      0.007077     -0.262956
O	      4.10039      6.30106      8.35450         0.030789     -0.168266     -0.319052
O	      6.17813      8.36404      8.17168         0.027635     -0.040598     -0.101262
O	      8.21000      8.29167     10.36624        -0.076645     -0.125290     -0.025113
