# total energy = -197.18498954 eV
 
CRYSTAL
PRIMVEC
0.011835 6.261890 6.269859 
6.186211 0.008042 6.273729 
4.111307 4.164336 0.018096 
PRIMCOORD
36 1
Li	      0.04479      6.20080      6.23244         0.051278     -0.054090     -0.021883
Li	      2.10236      8.30030      6.27010         0.054066     -0.026238      0.050680
Li	      6.22449      8.31302     10.49027        -0.012585     -0.036354      0.087725
Li	      2.05719      4.13822      2.18567        -0.005689     -0.090131      0.053744
Li	      6.16298      6.23007      4.21843        -0.050285      0.050502      0.012807
Li	      4.11051      4.24335      4.16814        -0.067110      0.058433      0.025006
Li	      4.10023      8.35399      4.24478         0.063328     -0.037359      0.103670
Li	      4.11741      6.29551      6.17581         0.018875      0.104006     -0.151395
Li	      6.21267      6.19084      8.40949         0.036648     -0.070565     -0.040853
Mn	      4.19378      6.25074     10.47020         0.317838      0.008519      0.398108
Fe	      4.14114      6.20918      2.13472         0.343526      0.035278      0.069376
Fe	      8.23441      6.22669      6.28127         0.071786     -0.040937     -0.067236
Fe	      6.11347      8.35714      6.26063        -0.090005     -0.116410     -0.332718
Cu	      2.04237      0.04951      2.08222        -0.102696      0.067093     -0.029904
Cu	      6.20553      4.19153      6.27308        -0.080190     -0.077070     -0.031041
Cu	      8.19994      6.27094     10.46546         0.203662     -0.208559      0.164134
Cu	      4.13601      4.19973      8.35656        -0.048529      0.049973      0.144560
Ni	      4.08727      2.13666      2.13964        -0.009284      0.176458     -0.215783
O	      2.08004      6.21829      6.17485         0.038121      0.339218      0.100950
O	      6.17912      8.47749      8.22453         0.405001      0.112909      0.641444
O	      6.13002      6.25929     10.40791        -0.440493      0.033886     -0.174849
O	      8.25182      8.41593     10.35109        -0.044804      0.397006     -0.093813
O	      2.02201      2.03793      2.12045         0.177500     -0.158248      0.027217
O	      4.19456      4.18658      2.13425         0.081459     -0.107654      0.046628
O	      4.16328      1.94872      4.23300        -0.037410     -0.231751     -0.109678
O	      6.31582      4.16071      4.38148         0.106203      0.002724     -0.582821
O	      6.11036      2.15760      6.37266         0.004075      0.219055     -0.356987
O	      8.29403      4.19570      6.15336         0.025703     -0.005822     -0.281890
O	      2.04313      4.26170      4.34242         0.072263      0.039101     -0.629112
O	      4.00882      6.29592      4.06313        -0.144279     -0.011626      0.267850
O	      3.97641      4.12648      6.33604         0.541049      0.007693      0.059400
O	      6.23481      6.29109      6.29033        -0.055416     -0.444316      0.109357
O	      6.16046      4.11041      8.16798        -0.328031      0.151959      0.342053
O	      8.30561      6.17632      8.33002        -0.451732      0.393680      0.158486
O	      4.27088      8.30417      6.36906        -0.702841      0.005252      0.160050
O	      4.03568      6.36222      8.53029         0.058999     -0.535612      0.096716
