# total energy = -196.48458595 eV
 
CRYSTAL
PRIMVEC
0.017768 6.823114 5.991244 
5.963987 -0.044452 6.054394 
3.977849 4.592637 -0.032038 
PRIMCOORD
36 1
Li	      2.03376      2.26265      0.08920        -0.061102     -0.059051     -0.018674
Li	      3.94242      9.04646      7.93135         0.045043     -0.132483      0.034212
Li	      3.99025      0.05814      3.97949        -0.056076      0.060190     -0.011050
Li	      4.01547      6.78983      2.02465        -0.056459     -0.087228     -0.075871
Li	      3.93037      4.35516      4.03762         0.046361     -0.026304      0.051302
Li	      3.98980      2.24757      6.02571         0.045655      0.044629      0.034325
Li	      2.03377      6.83358      3.94493        -0.038430     -0.043403      0.054884
Li	      1.99893      4.78956      5.99033         0.097545      0.069376      0.012333
Li	      3.94048      6.78582      5.95073        -0.049444     -0.040375      0.045051
Mn	      5.93526      9.03828     10.00586         0.397070      0.225887     -0.043118
Fe	      2.09621      4.62007      2.03913        -0.022259      0.521312      0.331078
Fe	      5.94691      4.48204      5.92718         0.000933     -0.185271     -0.111614
Fe	      5.89277      6.79213      7.94573        -0.128821      0.148176      0.290400
Cu	      2.02114      0.02153      2.05602         0.152721      0.024975      0.273820
Cu	      2.01818      2.32691      4.05513         0.024635     -0.096455     -0.102983
Cu	      3.98808      8.94133      4.05093        -0.122579      0.167703     -0.148986
Cu	      7.94228      9.05025      7.96829        -0.209246     -0.030971     -0.311953
Cu	      4.01638     11.35998      5.96673        -0.054403     -0.096376     -0.203098
O	      1.94310      6.91338      6.19210        -0.018172      0.021467     -0.481850
O	      4.01036      9.22148      5.87217        -0.054842      0.359115      0.227467
O	      3.93867      6.92910      7.97291         0.295678      0.174125     -0.006182
O	      7.94968      9.04050      9.81903        -0.083060     -0.089993      0.330481
O	      2.01389      2.73703      2.13770        -0.003143     -0.489327      0.403228
O	      4.09539      4.72577      1.99046        -0.152017     -0.060281     -0.202922
O	      4.02239      2.26582      4.00311        -0.735604      0.031322      0.018313
O	      5.98001      4.23122      3.92343        -0.000657     -0.134023      0.179797
O	      6.02107      2.46663      5.87745        -0.004759     -0.200004      0.170767
O	      7.98696      4.48751      6.20566         0.016665     -0.089632     -0.482878
O	      1.93494      4.73116      3.91044         0.191232      0.100210      0.160036
O	      4.06737      6.96867      3.99837         0.478007     -0.135863      0.041649
O	      3.98825      4.43253      6.14439        -0.030477     -0.004529     -0.325073
O	      5.97361      6.49312      5.95616         0.005910      0.150076     -0.669264
O	      5.83177      4.66404      8.03280         0.191786     -0.009223      0.272243
O	      7.86120      6.47229      8.00863         0.198481      0.177624      0.011192
O	      6.08826      8.82506      8.02500        -0.342362     -0.132521      0.070543
O	      5.95258      7.11382     10.03882         0.036190     -0.132875      0.182399
