# total energy = -92.94740892 eV
 
CRYSTAL
PRIMVEC
2.054759 4.243984 2.054576 
2.094498 -4.284161 2.094248 
4.168683 -0.000061 -4.168276 
PRIMCOORD
16 1
Li	      2.18161     -0.06084     -2.11857         0.167865      0.133551     -0.051991
Li	      2.14027     -0.02029      2.07206        -0.238414      0.028928      0.136662
Li	      2.15144     -2.16990     -0.02484         0.142797     -0.000284      0.022672
Li	      4.23983     -2.10923     -2.05455        -0.019889     -0.118467      0.012266
Mn	      0.07511     -0.06312     -0.01121        -0.628126      1.657740      1.104293
Mn	      2.11252      2.15465     -0.02530         0.262436     -0.968118     -0.274969
Ni	      4.20441      2.15482     -2.11754        -0.271221     -0.432395      0.408829
Ni	      4.24035     -0.01935     -0.02753         0.031406      0.129911     -0.254609
O	      6.43011     -0.03256     -0.02720        -0.154528     -0.120713     -0.172764
O	      4.08619      2.03770     -0.01477        -0.561083     -0.314393      0.010284
O	      4.23942     -0.00636     -2.21737         0.146586     -0.034433      0.113530
O	      4.21486     -0.19728      2.17506        -0.075259     -0.155620     -0.479861
O	      4.22727     -2.07688      0.12614        -0.163901      0.509956      0.465012
O	      2.10486      2.30533      1.99639         0.367679     -0.662394     -0.588413
O	      2.03683      0.15827     -0.00211         0.425940      0.294452      0.025788
O	      2.21619     -2.34335      2.10744         0.567712      0.052280     -0.476728
