# total energy = -207.98330339 eV
 
CRYSTAL
PRIMVEC
-0.001138 6.224441 6.215568 
6.234204 -0.006302 6.220730 
4.155687 4.152409 -0.003639 
PRIMCOORD
36 1
Li	      4.14547      4.11878      0.09396        -0.077087     -0.056358      0.072890
Li	      6.14698      4.08117      2.07964        -0.057653      0.008730     -0.052069
Li	      4.18776      2.18991      2.10241        -0.048234      0.099896     -0.057213
Li	      2.14141      4.14495      2.10444         0.007892      0.004649     -0.013912
Li	      2.11637      2.15808      4.15849        -0.065648      0.155907      0.049489
Li	      4.13380      4.08900      4.14701        -0.060845      0.029603      0.022075
Li	      4.14442      2.14985      6.19174        -0.083178      0.086956      0.099125
Li	      2.14186      4.16075      6.21018         0.137730     -0.062920     -0.129699
Li	      4.11896      4.13740      8.19583         0.105350      0.006451     -0.131276
Cr	      2.06632      2.06409      0.07361         0.196590      0.116535      0.589516
Cr	      6.26355      6.25305      8.25509         0.193821     -0.201777     -0.150713
Fe	      4.07868      0.07300      4.08959         0.164755     -0.320676     -0.000404
Fe	      4.06585      6.07954      2.05522        -0.030102      0.275562      0.032121
Fe	      0.13416      4.12209      4.14128        -0.007551     -0.034460     -0.049591
Co	      6.22696      8.27984     10.34953        -0.453252      0.092041     -0.314946
Cu	      4.15442      6.20276      6.25375         0.194546     -0.089027      0.046396
Ni	      6.19745      4.14971      6.20202         0.013302      0.197919      0.228685
Ni	      2.09405      6.19210      4.12628         0.122132     -0.141681     -0.076095
O	      4.23401      4.25926      6.20848        -0.503512     -0.063575      0.038046
O	      1.97404      2.09804      1.91374         0.098988     -0.004646     -0.235295
O	      4.14269      4.23897      2.04940         0.013481     -0.416712      0.072262
O	      4.28974      1.98023      4.17689         0.052607      0.305751      0.054935
O	      6.29968      3.97301      4.13449        -0.201093      0.002961     -0.176085
O	      6.29284      2.08539      6.17669         0.020885     -0.287427     -0.036725
O	      8.24615      3.98677      6.09403         0.323460     -0.198076      0.007899
O	      2.00463      4.16738      4.20728         0.072789     -0.055239     -0.055947
O	      4.14704      6.29286      4.06605         0.106517      0.004309      0.159470
O	      6.17181      6.19364      6.32001         0.019345      0.229641     -0.256240
O	      6.23576      4.22127      8.36901        -0.098606     -0.301217      0.155428
O	      8.29735      6.22887      8.27930         0.118683      0.055970     -0.035279
O	      2.15202      6.37687      6.16512        -0.130703      0.105891      0.083723
O	      4.05233      8.26097      6.13849        -0.114808      0.112622     -0.055922
O	      4.25102      6.22523      8.34661        -0.147726      0.092748     -0.097028
O	      6.26999      8.19017      8.44481         0.008779      0.378677      0.151772
O	      6.21951      6.27975     10.30930        -0.132827     -0.150627      0.110831
O	      8.22456      8.30652     10.47022         0.241174      0.021597     -0.050223
