# total energy = -207.70321878 eV
 
CRYSTAL
PRIMVEC
-0.000256 6.273977 6.207093 
6.279694 0.010451 6.196254 
4.196554 4.185623 -0.003046 
PRIMCOORD
36 1
Li	      2.14796      8.24193      6.24774        -0.019826     -0.056009     -0.056137
Li	      2.01157      6.27962      8.16249         0.004623      0.007163     -0.034147
Li	      4.18969      2.17829      2.00806        -0.024314      0.010841      0.023251
Li	      6.30407      8.37360     10.31805         0.135587     -0.059589     -0.035436
Li	      4.24359      6.17498      2.08078         0.076339      0.001642     -0.004642
Li	      2.19493      4.12915      2.09907         0.006720     -0.099645      0.007687
Li	      2.10738      6.29841      4.25650        -0.148505      0.166957     -0.017824
Li	      2.00597      4.32335      6.20799        -0.027514      0.043495      0.068645
Li	      4.05009      6.37356      6.20262        -0.087623      0.051287      0.083944
Cr	      6.31755      4.14628      6.20901        -0.048712      0.000981     -0.020103
Cr	      4.15844      4.20521      8.25552        -0.154413     -0.025954     -0.008490
Fe	      4.18826      6.26617     10.30624         0.069052     -0.095838     -0.046446
Fe	      4.23731      2.07946      6.21986        -0.043195      0.011457      0.100677
Fe	      6.28028      6.35555      8.25865         0.000989      0.028208     -0.058274
Co	      2.07445      2.10449      4.04843        -0.164034      0.097909      0.246577
Cu	      4.14598      4.24116      4.04303        -0.111982      0.029449      0.186797
Cu	      4.22102      8.34268      4.18591         0.043326     -0.064235     -0.059192
Ni	      4.27753     10.43765      6.28678         0.018295      0.084210     -0.082948
O	      4.18306      4.17894      2.14270         0.009427      0.032547     -0.032377
O	      2.03108      6.29197      6.19091         0.184710      0.025184      0.021114
O	      4.17880      8.44551      6.13132        -0.042372     -0.192367      0.033737
O	      2.09586      2.08576      2.28645         0.066919     -0.110532      0.040686
O	      4.01653      2.05937      4.16859        -0.041107      0.160000     -0.034769
O	      6.34670      4.31753      4.20238        -0.209982     -0.015064     -0.101808
O	      6.19819      2.12313      6.17666         0.130880      0.197951     -0.102562
O	      8.36477      4.23232      6.14070        -0.135959     -0.028428      0.039461
O	      2.03083      3.97780      4.12892         0.309429      0.070536      0.064508
O	      4.39057      6.33603      4.13652         0.009100     -0.327256      0.077530
O	      4.29419      4.12131      6.17274         0.043039      0.010043     -0.112889
O	      6.36051      6.17107      6.16647         0.076510     -0.053510     -0.191471
O	      6.20180      4.27438      8.21942         0.031449     -0.117974      0.004916
O	      8.30385      6.36248      8.21925         0.059312      0.019328      0.048377
O	      4.25166      6.22189      8.31198        -0.057184      0.034872     -0.060305
O	      6.36756      8.28063      8.29062         0.037312      0.175779      0.024710
O	      6.21548      6.22055     10.30787         0.018880      0.045607      0.028478
O	      8.44596      8.44684     10.24517        -0.015177     -0.059043     -0.041275
