# total energy = -207.12054472 eV
 
CRYSTAL
PRIMVEC
-0.001663 6.139525 6.149656 
6.422785 0.033434 6.114049 
4.307986 4.095952 -0.004386 
PRIMCOORD
36 1
Li	      4.31332      8.18767      8.18437         0.031997     -0.015499      0.090556
Li	      6.42996      8.17959     10.18591        -0.037099     -0.017803     -0.080409
Li	     10.62626      6.22260      8.19012        -0.060784     -0.100313      0.005519
Li	      4.23419      4.16825      4.09646        -0.015564     -0.040899     -0.027777
Li	      8.61482      6.20090      6.21393        -0.076845     -0.034327     -0.082017
Li	      6.42269      4.11022     10.18309         0.020935      0.017440     -0.004378
Li	      8.72812      6.23260     10.12457         0.088340      0.008529      0.059660
Li	      8.56329      8.12187      8.15857        -0.138925      0.034166      0.084266
Li	      6.63420      6.13459      8.22326         0.020086      0.157780      0.006569
Cr	      6.38276      0.07689      6.11311        -0.250634      0.036649     -0.282759
Cr	      4.35970      6.12980     10.14867         0.206323      0.285088      0.081846
Fe	      6.36762      4.07251      2.06451         0.090411     -0.136376      0.222938
Fe	      2.10993      2.07870      4.07240         0.171394     -0.003567      0.008854
Fe	      6.50932      8.14102      6.15270        -0.026060      0.065277     -0.026867
Co	      6.35141      4.06182      6.16501        -0.186801     -0.118573      0.743178
Cu	      8.56080      8.20469     12.23954        -0.170804     -0.076394      0.061219
Cu	      8.56690      4.20690      8.23531         0.158327     -0.132260      0.197543
Cu	      4.32953      6.17055      6.17219         0.267668      0.040744     -0.098940
O	      6.52973      4.13386      7.99395         0.210211      0.044981     -0.302067
O	      8.61504      6.09218      8.22104        -0.003601     -0.061094     -0.093852
O	      8.55703      8.34821     10.26664        -0.038388     -0.036843     -0.250968
O	      2.12189      2.07034      2.06400        -0.027421      0.198053     -0.341835
O	      4.35063      4.10588      1.98963        -0.233574      0.062329      0.030593
O	      4.10491      1.85898      4.09027         0.339001     -0.159516     -0.115090
O	      6.51243      4.10542      4.11308         0.023533     -0.061351     -0.153122
O	      6.36837      2.09432      6.05108         0.352709     -0.379058      0.121906
O	      8.67588      3.99083      6.02544        -0.011288      0.399056      0.115553
O	      2.20706      4.07393      4.19915         0.010805      0.197611     -0.325716
O	      4.48114      6.17613      4.20390        -0.518163     -0.027874      0.079932
O	      4.19782      4.18853      6.13894         0.392106      0.105111      0.004893
O	      6.55443      6.11079      6.07764        -0.258277      0.379873      0.253680
O	      1.96267      6.21073      6.17849         0.179759     -0.157560     -0.118787
O	      4.49516      8.25263      6.11223        -0.435159     -0.271523      0.059004
O	      4.08830      6.15652      8.19101        -0.071173     -0.046752     -0.134014
O	      6.41724      8.26006      8.07418         0.027753     -0.061297      0.239896
O	      6.20009      6.19767     10.24297        -0.030795     -0.093812     -0.029005
