# total energy = -207.92197911 eV
 
CRYSTAL
PRIMVEC
-0.020308 6.204080 6.208786 
6.150098 -0.014782 6.203262 
4.108111 4.140423 -0.018032 
PRIMCOORD
36 1
Li	      6.17911      0.03395      6.21143        -0.006199     -0.015065     -0.010596
Li	      8.11185      2.05853      6.21629        -0.004712     -0.017106     -0.029353
Li	      4.13141      8.23383      8.23099         0.028069     -0.040626      0.027377
Li	      6.08421      2.08890      4.24210        -0.018670      0.012781      0.090984
Li	      4.16786      4.07074      4.16524         0.039007     -0.048759      0.029094
Li	      4.15062      2.09232      6.16128        -0.039489     -0.005418     -0.037249
Li	      6.14237      4.02147      6.15509        -0.030646      0.005010     -0.052112
Li	      4.11850      6.23109      6.26283         0.010084     -0.026235      0.065927
Li	      6.10084      6.24767      8.20884        -0.045341      0.027344     -0.030022
Cr	      6.17116      6.19874      4.15058         0.084828      0.001924     -0.042591
Cr	      2.01309      6.19942      4.17991        -0.059167      0.055954      0.028566
Fe	      4.14995      0.03668      4.19614        -0.036425     -0.103202      0.049149
Fe	      8.24696      4.11904      8.05950        -0.070385      0.024625      0.057334
Fe	      4.06276      4.12832      8.20194        -0.035852     -0.018025      0.138373
Co	      6.12879      8.25236      6.18347         0.053436      0.112365      0.108138
Ni	     10.22495      8.28419     10.35514        -0.035717      0.014465      0.044131
Ni	      2.02131     -0.00017      2.04230         0.000945      0.012212     -0.011678
Ni	      6.14098      2.05188      8.23799        -0.002277     -0.024271     -0.057873
O	      6.14373      2.05527      6.38040        -0.020872     -0.017719     -0.181961
O	      2.06243      2.13678      2.13015         0.103206     -0.001413      0.050544
O	      4.04239      4.26157      2.06321         0.098642     -0.076349      0.012178
O	      4.03446      1.98624      4.13328         0.012650      0.196471     -0.000391
O	      6.19846      4.22671      4.11214        -0.071515     -0.026113      0.103150
O	      8.19890      4.09633      6.17044        -0.036693     -0.018775     -0.029467
O	      2.03432      4.14219      4.19529         0.119920      0.014301      0.000534
O	      4.09272      6.24919      3.98380        -0.019857     -0.052243      0.148357
O	      3.94761      4.13343      6.27398        -0.073562     -0.005967     -0.235431
O	      6.13817      6.37740      6.11058         0.000262     -0.002525      0.062060
O	      6.15966      4.03417      8.28251        -0.016653      0.067743      0.034677
O	      8.16379      6.15862      8.36507        -0.093557     -0.000195      0.047850
O	      2.07309      6.04585      6.16985         0.005956     -0.031763     -0.107897
O	      4.28182      8.25675      6.14263         0.091089      0.026193      0.007765
O	      4.06272      6.09145      8.40352         0.105789      0.111486     -0.174203
O	      6.16303      8.29820      8.09404        -0.124376     -0.127754     -0.160220
O	      6.14875      6.18142     10.35340         0.170899      0.019367      0.018925
O	      8.16808      8.20608     10.28292        -0.082821     -0.042717      0.035932
