# total energy = -210.41225333 eV
 
CRYSTAL
PRIMVEC
0.018903 6.213598 6.117836 
6.259131 0.007172 6.129523 
4.177625 4.154970 0.000041 
PRIMCOORD
36 1
Li	      6.25476      4.16001      2.13417        -0.027647      0.032154      0.080504
Li	      4.18625      0.05735      4.05426        -0.032139     -0.032438     -0.013110
Li	      6.14770      2.13417      4.10148         0.019574      0.081144     -0.037708
Li	      4.18489      6.18772      2.07939         0.012189      0.013680      0.031825
Li	      6.25142      6.20835      4.08497         0.012262     -0.047572     -0.046807
Li	      4.20539      4.16331      4.05743        -0.000201     -0.018495     -0.011547
Li	      2.13009      6.17750      4.15209        -0.009984     -0.032164     -0.125630
Li	      2.10418      4.15404      6.12232        -0.017156     -0.034379      0.008476
Li	      6.24436      6.23469      8.14660         0.026100     -0.003128      0.005355
Cr	      2.11720      8.26236      6.10730         0.039284      0.225328     -0.047512
Cr	      4.20228      2.07584      2.11723        -0.123986     -0.070023      0.388263
Fe	      6.25355      4.17030      6.01969         0.006641      0.163770      0.414698
Fe	      0.10104      4.12709      3.99599        -0.116359     -0.026207     -0.025045
Fe	      8.17043      8.36804      8.22612         0.071388     -0.069973      0.075162
Co	      8.36332      4.18976      8.14734        -0.111549     -0.231150      0.089965
Co	      4.12424      2.09105      6.05473        -0.147543      0.149012     -0.143164
Cu	      0.08451      6.23257      6.12118         0.005656      0.069093     -0.098854
Ni	      4.15635      6.18640      6.09898         0.104901     -0.151279      0.125470
O	      6.31687      5.99558     10.28907         0.003716      0.244772      0.098641
O	      2.18301      2.20738      1.97999         0.023996      0.230122     -0.055999
O	      4.04852      4.10195      2.00988        -0.051956     -0.052610     -0.085816
O	      4.18077      2.04686      4.15802         0.014670      0.084463      0.066909
O	      6.24465      4.14773      4.23209         0.003564      0.006872     -0.717615
O	      6.36288      2.22892      6.08328        -0.178628     -0.649862      0.066004
O	      8.41470      4.14536      6.19241         0.026736     -0.114922      0.207623
O	      1.98958      4.17274      3.93352         0.208347      0.016338     -0.056292
O	      4.19269      6.41326      4.09107         0.001590     -0.201459     -0.074696
O	      4.19189      4.12561      6.22371        -0.133249     -0.087962     -0.079280
O	      6.26809      6.07922      6.10038         0.241979      0.398782      0.090046
O	      6.36599      4.14814      8.07638         0.097307     -0.009502      0.202022
O	      8.36347      6.19127      7.93328         0.061881     -0.041180     -0.012144
O	      2.06834      6.31319      6.17306        -0.087165     -0.049605     -0.063469
O	      4.13580      8.18290      6.20601         0.105752      0.371271     -0.169967
O	      4.16541      6.21550      8.16628        -0.000284     -0.128123     -0.056079
O	      6.25469      8.28716      8.22842         0.064761     -0.037629     -0.064434
O	      8.54658      8.27459     10.17817        -0.114446      0.002861      0.034206
