# total energy = -211.41710855 eV
 
CRYSTAL
PRIMVEC
-0.006026 6.178515 6.325754 
6.207653 0.024617 6.295685 
4.150499 4.110659 0.004333 
PRIMCOORD
36 1
Li	      2.14746      6.16349      8.47061         0.028927     -0.008268     -0.025976
Li	      4.15763      8.16029      8.44360         0.013861     -0.036060     -0.036815
Li	      4.14402      6.18554     10.38566        -0.059730      0.012715     -0.113952
Li	      6.24134      6.15222      4.25253         0.057080     -0.027964     -0.000434
Li	      6.15880      4.20346      6.29908        -0.035701      0.014646      0.018639
Li	      6.18888      4.23125     10.48061         0.004005      0.004996      0.017157
Li	      6.21459      8.21238      6.34583        -0.066248      0.032905      0.009676
Li	      8.28213      8.26856      8.46943         0.003129      0.084704      0.008238
Li	      6.16249      6.16592      8.37901        -0.083979     -0.059247     -0.137364
Cr	      6.17596      8.27969     10.39942        -0.062603      0.487511     -0.326604
Cr	      8.27669      4.16836      8.42419        -0.062031     -0.214659     -0.136451
Fe	      2.12196      8.21984      6.31779         0.085668      0.096129      0.083008
Fe	      6.20842      2.15102      8.46239         0.081396     -0.028928     -0.030699
Fe	      4.23822      6.13258      6.43096        -0.158391      0.078396     -0.127183
Co	      0.06615      6.13405      6.33676        -0.269056      0.191620     -0.187119
Co	      4.12966      4.11096      4.20132         0.210010     -0.114431      0.139955
Cu	      8.17812      6.22309      6.26036        -0.095487     -0.040584     -0.045447
Cu	      8.25477      6.21175     10.50400         0.136842     -0.024286     -0.009958
O	      6.12024      6.19103      6.29113         0.600094      0.057009     -0.094505
O	      6.19669      8.20756      8.62389         0.036803     -0.082597      0.396261
O	      2.01109      2.13233      2.05065        -0.004827      0.061121      0.070175
O	      4.08559      4.18619      2.18339         0.111994     -0.022009     -0.476564
O	      4.18109      2.16608      4.26270         0.039171      0.026228     -0.227529
O	      6.08915      3.96741      4.25310        -0.070462     -0.115908      0.065981
O	      6.27626      1.93199      6.29284        -0.169220     -0.169886     -0.069851
O	      8.40675      4.11119      6.37434         0.441161      0.059501     -0.092795
O	      2.18274      4.21522      4.09906         0.001766     -0.016124      0.022308
O	      4.08764      6.06892      4.22450        -0.027510     -0.058954     -0.023316
O	      4.09589      4.14626      6.11685        -0.029320     -0.146516     -0.088649
O	      6.28028      4.06816      8.43150         0.035078      0.143875     -0.006291
O	      8.34082      6.16891      8.22241        -0.065046      0.065318      0.306002
O	      2.06491      6.23008      6.44549        -0.574261     -0.162848     -0.139329
O	      4.10096      8.28798      6.29920         0.038928      0.191725     -0.093513
O	      4.15841      6.14438      8.27438        -0.060145      0.004767      0.409535
O	      6.24455      6.32378     10.63385         0.014025     -0.310195      0.948515
O	      8.18226      8.23116     10.59185        -0.045921      0.026300     -0.005108
