# total energy = -210.75266668 eV
 
CRYSTAL
PRIMVEC
-0.010241 6.201041 6.279075 
6.262371 -0.004933 6.274019 
4.150633 4.106487 0.020592 
PRIMCOORD
36 1
Li	      6.20721      4.10557      2.12894        -0.058121      0.011784     -0.123504
Li	      4.14457      6.14162      2.20986        -0.015325      0.041829      0.013001
Li	      6.18350      6.12105      4.28434        -0.119371      0.120391     -0.023611
Li	      4.09956      4.22697      4.30579        -0.187578      0.178316     -0.047907
Li	      6.09119      4.17754      6.20869        -0.040608      0.010098      0.156521
Li	      2.17201      6.10945      4.22913         0.118280     -0.102948     -0.041505
Li	      2.20344      4.16439      6.21134        -0.056331      0.013620      0.025900
Li	      4.18262      6.02206      6.20775        -0.004907     -0.001707     -0.164297
Li	      4.17202      4.12564      8.20920        -0.001436     -0.114413      0.028738
Cr	      6.26297      2.09929      4.16244         0.106409     -0.609561      0.394193
Cr	      2.09387      4.14212      2.13035        -0.160314      0.116599      0.088204
Fe	      2.04178      8.16129      6.33712         0.007056     -0.071597      0.374256
Fe	      4.21647      8.11082      4.23262         0.231437      0.007587     -0.081667
Fe	      6.23115      6.19342      8.24000         0.421929     -0.002427     -0.082717
Co	      6.26447      0.01322      6.28145         0.095204     -0.083953      0.203418
Co	      8.32873      4.11448      4.22046        -0.495664     -0.176937     -0.349830
Ni	      4.16371      2.06038      2.10236         0.068551      0.118207     -0.251984
Ni	      4.12832      2.13275      6.25444        -0.004536      0.102495      0.302801
O	      4.16701      4.04558      6.25135         0.109575      0.274005     -0.159833
O	      2.09727      2.15043      1.98692        -0.080327      0.002129      0.165304
O	      4.08061      4.09925      1.95822         0.043016      0.106141     -0.079344
O	      4.26566      1.94887      4.18554        -0.072311     -0.303755      0.156559
O	      6.40882      4.02327      4.18416         0.548198      0.420958     -0.002320
O	      6.26953      1.96929      6.19521         0.019587     -0.046744     -0.045298
O	      8.43339      4.14928      6.23222         0.098290     -0.074402     -0.040475
O	      2.02862      4.13116      4.08270         0.106857      0.021980      0.009334
O	      4.12940      6.27516      4.22232        -0.064186     -0.447699      0.076242
O	      6.24786      6.17653      6.35368        -0.164656     -0.076574     -0.257988
O	      6.31840      4.22412      8.49108         0.021031     -0.308047     -0.117914
O	      8.23888      6.13138      8.33161         0.153344     -0.076752      0.136694
O	      1.92203      6.25722      6.29102        -0.116577     -0.166071     -0.063822
O	      4.07654      8.37546      6.26156         0.003056      0.136289      0.002127
O	      4.26326      6.21323      8.56859        -0.265967     -0.087927      0.294458
O	      6.23663      8.13917      8.50606        -0.008550      0.506412     -0.181659
O	      6.13994      6.20779     10.58954        -0.176737      0.139088     -0.125347
O	      8.30934      8.36849     10.58239        -0.058320      0.423585     -0.186729
