# total energy = -213.37916278 eV
 
CRYSTAL
PRIMVEC
0.021741 6.214291 6.275577 
6.233956 -0.004289 6.301924 
4.140994 4.145283 0.012416 
PRIMCOORD
36 1
Li	      8.29325      2.08942      6.29133        -0.001461      0.018667     -0.011613
Li	      2.13912      6.22889      8.39961        -0.006954      0.020741      0.035917
Li	      6.28075      8.27949     10.49981         0.038023     -0.030560      0.039262
Li	      8.20702      4.13685      8.32788        -0.024237     -0.007823      0.006810
Li	      8.27509      6.17627      6.33129         0.028420     -0.036890      0.072941
Li	      6.31874      4.10536      6.35965         0.042276     -0.040464      0.013645
Li	      6.23583      4.13079     10.44506         0.023956     -0.010486     -0.044885
Li	      4.15915      6.25573      6.32736        -0.064769      0.017776     -0.027638
Li	      6.24334      6.19058      8.37238         0.033235     -0.026550      0.012231
Cr	      4.20510      8.26542      8.37716         0.088087      0.111060     -0.078059
Cr	      4.15884      4.14186      8.34678         0.091234      0.203097     -0.254774
Fe	      6.21496      0.03662      6.31279         0.020017     -0.058999      0.009197
Fe	      8.30720      4.10850      4.26313        -0.011020      0.147915     -0.055301
Fe	      4.20930      4.12193      4.28792        -0.048041      0.029374     -0.160377
Co	      0.02702      2.07250      2.08216        -0.361197     -0.128699     -0.497729
Co	      2.08778      2.07967      4.20443         0.003642      0.267077      0.610462
Co	      8.25805      6.23934     10.45861        -0.144224      0.120223      0.013679
Cu	      6.21922      8.26314      6.28788         0.011077      0.063651     -0.199906
O	      6.18072      6.28329      6.10855         0.095035     -0.201772     -0.547260
O	      2.15934      2.07891      2.28917         0.110721     -0.068870      0.072382
O	      4.19346      4.13124      2.13082        -0.037931      0.019451      0.062799
O	      4.25463      2.08894      4.12180        -0.275991     -0.031001      0.011868
O	      6.22229      4.28070      4.27231         0.018517     -0.055032     -0.030903
O	      6.26388      1.99245      6.49964         0.163242      0.283259      0.328875
O	      8.38044      4.14088      6.21556        -0.092489     -0.048564      0.101072
O	      2.16188      4.03918      4.23384         0.043960     -0.037279     -0.061390
O	      4.01648      6.13781      4.04357        -0.067650      0.170596      0.022642
O	      4.08114      4.13946      6.27768         0.099050     -0.023306      0.191859
O	      6.13046      4.00289      8.35924         0.018166     -0.021223      0.032481
O	      8.25365      6.29228      8.52456         0.066691     -0.180703      0.462368
O	      2.04788      6.16849      6.07450         0.016890      0.185636     -0.409357
O	      4.21030      8.33892      6.39911        -0.164557     -0.100143      0.025455
O	      4.19871      6.22754      8.48133         0.013010     -0.056884     -0.062872
O	      6.24798      8.30343      8.26820        -0.102175      0.023966      0.191795
O	      6.27759      6.21963     10.56167         0.411826      0.031831     -0.000165
O	      8.27624      8.38019     10.36690        -0.034383     -0.549070      0.124487
