# total energy = -213.65614495 eV
 
CRYSTAL
PRIMVEC
0.003500 6.172209 6.141673 
6.194165 -0.009125 6.154463 
4.130694 4.124457 -0.007593 
PRIMCOORD
36 1
Li	      8.21741      2.03042      6.16532        -0.033753     -0.083595      0.026190
Li	      6.17336     10.21602      8.19377         0.048074     -0.053682     -0.030175
Li	      6.22636      8.21523     10.25189        -0.034536     -0.040575      0.091874
Li	      6.15924      2.13718      8.16450         0.035720     -0.036595     -0.046431
Li	      4.23278      2.06765      6.18807         0.083740      0.038899     -0.071503
Li	      6.13896      4.05984      6.17978        -0.034654     -0.071034     -0.003705
Li	      6.11568      4.12868     10.18492        -0.037917     -0.014794      0.013759
Li	      8.26824      6.22011     10.20817        -0.022010      0.026184      0.077433
Li	      6.19095      8.26413      6.18825        -0.045250      0.020465      0.053607
Cr	      2.08039      2.07841      4.11850        -0.031540     -0.127448      0.052062
Cr	      6.20347      6.16510      8.17854        -0.049243     -0.068414      0.075941
Fe	      0.10727      6.23609      6.10232         0.158242     -0.354530      0.066833
Fe	      8.20598      3.98387      4.19452         0.044239      0.335387     -0.140357
Fe	      4.03120      6.19062      6.09872        -0.191255      0.279056      0.057639
Co	      4.15757      2.08359      2.05795         0.019769      0.052259     -0.035678
Co	      8.26986      4.12098      8.17654         0.142499      0.026121     -0.144167
Co	      4.17171      4.11038      4.09711         0.049710      0.043600     -0.067170
Ni	      8.26303      8.15953      8.16736        -0.169901      0.118449     -0.100431
O	      2.21272      2.16916      2.12040         0.163362      0.283179     -0.015251
O	      4.17512      3.99267      2.12685        -0.061578     -0.147688      0.189751
O	      4.08560      2.13111      4.02706         0.034019     -0.053688     -0.046398
O	      6.19352      4.19983      4.12759        -0.180419      0.111049      0.003857
O	      6.23066      1.86444      6.19592        -0.037545      0.761749      0.030718
O	      8.39539      4.11255      6.18278        -0.367584     -0.078847      0.452437
O	      2.23076      4.07736      3.94960         0.026447      0.092065     -0.242339
O	      4.20132      6.06126      4.10563         0.031838      0.030202     -0.152154
O	      4.08509      4.21373      6.06519         0.028504     -0.280174     -0.073187
O	      6.04703      6.22509      6.13679         0.140219     -0.045746     -0.041417
O	      6.18664      4.15856      8.17082        -0.030127      0.111502      0.002492
O	      8.17331      6.09720      8.18008        -0.027865     -0.180910      0.010531
O	      2.04953      6.18438      6.12861         0.348483     -0.030459     -0.007684
O	      4.13879      8.28713      6.25711        -0.047461     -0.201002      0.104127
O	      4.15491      6.26484      8.20237        -0.006157     -0.015173      0.089221
O	      6.12787      8.14691      8.20910         0.029306     -0.025332      0.032441
O	      6.09502      6.13865     10.24290        -0.002746     -0.013950     -0.262396
O	      8.23669      8.30255     10.16147         0.027371     -0.406527      0.049529
