# total energy = -92.71419419 eV
 
CRYSTAL
PRIMVEC
2.064881 4.264891 2.064697 
2.104816 -4.305265 2.104564 
4.189219 -0.000062 -4.188809 
PRIMCOORD
16 1
Li	      2.21352     -0.08265     -2.12913         0.227518      0.175864     -0.074538
Li	      2.18205     -0.02050      2.07188        -0.315230      0.036316      0.177775
Li	      2.17269     -2.19133     -0.02509         0.184160      0.000882      0.024529
Li	      4.29188     -2.10905     -2.06467        -0.027130     -0.146225      0.011268
Mn	      0.10685     -0.08495     -0.02159        -0.832839      2.257609      1.477163
Mn	      2.13339      2.17593     -0.02555         0.321573     -1.265958     -0.370704
Ni	      4.24593      2.17610     -2.13845        -0.355145     -0.551607      0.525457
Ni	      4.28223     -0.01954     -0.02780         0.049237      0.164786     -0.340480
O	      6.49362     -0.03288     -0.02747        -0.236246     -0.187455     -0.219139
O	      4.12654      2.05782     -0.01492        -0.688628     -0.447301     -0.003476
O	      4.28129     -0.00642     -2.23927         0.189232     -0.041894      0.190715
O	      4.25649     -0.19923      2.19655        -0.096491     -0.186325     -0.668677
O	      4.26902     -2.09739      0.12739        -0.177797      0.706799      0.582799
O	      2.12565      2.32810      2.01611         0.446343     -0.965652     -0.738121
O	      2.05695      0.15983     -0.00213         0.587174      0.343651      0.026206
O	      2.23808     -2.36650      2.12825         0.724269      0.106512     -0.600776
