# total energy = -212.26602901 eV
 
CRYSTAL
PRIMVEC
0.003950 6.365163 6.257658 
5.947856 -0.005861 6.267271 
3.986170 4.270019 -0.023680 
PRIMCOORD
36 1
Li	      2.01266      8.48947      6.22986         0.014996      0.000971     -0.017554
Li	      3.96405      8.46961      8.32740        -0.022967      0.028377     -0.009697
Li	      3.96385      6.34778     10.40180        -0.001615     -0.021317      0.035662
Li	      2.02741      4.25628      2.07650        -0.019989     -0.054326      0.013940
Li	      3.96819      4.23782      4.14330        -0.023814     -0.023430      0.022889
Li	      7.94933      6.38695      6.24863         0.006332      0.004272     -0.036965
Li	      7.95419      6.39326     10.42894         0.045521      0.011804      0.072547
Li	      3.96814      6.40026      6.28222         0.004557     -0.010908     -0.069502
Li	      3.97802      4.27333      8.37569         0.063624      0.013848      0.004022
Cr	      9.80888      6.36212      8.32499        -0.011566      0.024427     -0.039037
Cr	      9.88859      8.51794     10.40898        -0.106459     -0.047792      0.019618
Fe	      2.10405      6.38035      8.32279        -0.224107      0.095606      0.032852
Fe	      5.97353      8.44651     10.43767        -0.091797      0.127377      0.087931
Fe	      2.07928      2.11063      4.19155        -0.037557     -0.011546      0.078169
Fe	      2.04508      4.26361      6.27767         0.141116     -0.017009     -0.105569
Co	      5.97151      4.24338      6.25961        -0.112687     -0.072325      0.015936
Cu	      5.94042      6.39399      8.32874         0.105336      0.075879     -0.021967
Ni	      9.86270      4.25801      6.23222        -0.080635     -0.013067     -0.015190
O	      7.97569      6.33966      8.33985         0.086915     -0.037728      0.015002
O	      1.91259      2.03222      2.15682        -0.020152     -0.017564     -0.092429
O	      4.01668      4.44761      2.00948         0.030646     -0.000795      0.111892
O	      4.00423      2.13270      4.15895         0.057713     -0.006427     -0.037912
O	      5.95059      4.27513      4.15757         0.035172     -0.010006     -0.127116
O	      5.93015      2.11854      6.27873        -0.025613     -0.015545      0.117306
O	      7.76575      4.25110      6.27416        -0.027231      0.018818     -0.017037
O	      1.96875      4.15301      4.26567        -0.006146      0.025428     -0.113426
O	      4.01817      6.49590      4.04588        -0.102039      0.011405     -0.018529
O	      4.09509      4.27269      6.26679         0.134138      0.005370      0.036888
O	      5.97119      6.43966      6.24807        -0.010504     -0.039800      0.069530
O	      5.97596      4.01149      8.38244        -0.021277      0.177816     -0.017896
O	      1.97677      6.25428      6.31700         0.092328      0.148222      0.077386
O	      4.02583      8.58420      6.13732        -0.116688     -0.056965      0.051886
O	      3.99654      6.40027      8.32045         0.074362      0.017511     -0.000517
O	      5.96966      8.65259      8.32873        -0.000392     -0.247046      0.031433
O	      5.94259      6.34367     10.39449        -0.011011     -0.111595     -0.083873
O	      7.89011      8.48121     10.43593         0.181491      0.028064     -0.070671
