# total energy = -212.74902119 eV
 
CRYSTAL
PRIMVEC
0.012294 6.272517 6.238882 
6.280379 -0.002908 6.254092 
4.178249 4.183197 0.006718 
PRIMCOORD
36 1
Li	      6.28778      0.10293      6.25769         0.057010      0.017611     -0.012889
Li	      2.11296      8.25806      6.22436         0.059392     -0.080423      0.001954
Li	      2.01496      0.06961      2.05055        -0.040826      0.040787     -0.023390
Li	      6.33345      8.33647     10.47945         0.034107      0.006311     -0.030428
Li	      4.20752      6.16204      2.03276         0.056902     -0.044305      0.023546
Li	      2.17109      4.17725      2.16501         0.016358     -0.032453      0.059882
Li	      4.14677      4.24318      4.06251        -0.019193      0.067433     -0.055214
Li	      4.14679      8.34118      4.20082        -0.001974     -0.037989      0.025892
Li	      2.16887      6.27683      4.20878         0.100697     -0.005890      0.039411
Cr	      6.31805      4.12428      6.24660        -0.254761      0.217222      0.038273
Cr	      8.36354      8.36797      8.38592         0.007581     -0.009956      0.054769
Fe	      4.13980      2.25087      2.10073        -0.019233     -0.190638     -0.015432
Fe	      2.00679      2.10877      4.07781        -0.059938      0.013769      0.028779
Fe	      2.06254      4.28017      6.16806         0.003733     -0.044718     -0.054279
Fe	      6.33174      6.24063      8.47479        -0.062077     -0.024460     -0.098748
Co	      4.17576      6.27174      6.23078        -0.152677      0.066448     -0.187515
Cu	      8.38528     10.40194     10.45845        -0.072283     -0.093225     -0.136596
Cu	      4.28613      2.05414      6.21278        -0.033471     -0.079214     -0.033386
O	      8.24193      4.22001      6.18802         0.249904      0.164551      0.140581
O	      8.35888      8.42758     10.31455        -0.022376     -0.086491      0.078757
O	      2.15592      2.09401      2.15103        -0.017929     -0.024383     -0.228567
O	      4.20024      4.09982      2.05084        -0.005501      0.287706     -0.006040
O	      4.11538      2.01823      4.17319         0.156008      0.054310      0.043528
O	      6.35406      4.27310      4.26528        -0.062580     -0.199956     -0.033718
O	      6.24303      2.21781      6.24983        -0.105803     -0.186670     -0.028739
O	      2.10648      4.07557      4.25140         0.031652      0.182579     -0.058371
O	      4.25687      6.25017      4.31630        -0.257587      0.024741      0.208246
O	      4.21600      4.27045      6.32305         0.036329     -0.049520     -0.032318
O	      6.17569      6.24023      6.26798         0.077991     -0.018994      0.043901
O	      6.19287      4.24030      8.24729         0.045909     -0.026412      0.032903
O	      8.29608      6.35870      8.22597         0.129421      0.017253      0.050422
O	      2.24627      6.19466      6.21583         0.175810      0.198196      0.034591
O	      4.25195      8.22083      6.33971        -0.107867     -0.193293     -0.070818
O	      4.25957      6.24606      8.24905        -0.045211      0.057861     -0.060701
O	      6.30701      8.29124      8.25112        -0.017768     -0.014515      0.063888
O	      6.18869      6.25790     10.36464         0.120253      0.026722      0.197827
