# total energy = -211.73591695 eV
 
CRYSTAL
PRIMVEC
0.021092 6.273487 6.215447 
6.265976 0.021742 6.214665 
4.181821 4.186340 0.009962 
PRIMCOORD
36 1
Li	      2.12376      0.16991      2.07023         0.010066     -0.014757      0.031967
Li	      4.05579      2.04374      2.08776         0.024240      0.001996      0.016848
Li	      0.15726      2.09765      2.14104         0.080108     -0.012150      0.093355
Li	      2.05708      4.05196      2.19093         0.002794      0.030915     -0.024033
Li	      2.03868      2.16713      3.92852        -0.007110     -0.026118      0.016577
Li	      4.21828      8.23186      4.11556        -0.057817     -0.060733     -0.037428
Li	      8.40762      6.32068     10.31463        -0.009060      0.050243     -0.007113
Li	      4.14976      6.32438      6.23349        -0.060922      0.012857     -0.012602
Li	      8.37837      8.40354      8.40715         0.013083     -0.009310      0.100946
Cr	      4.17018      4.28843      4.01188         0.073412      0.061213     -0.228634
Cr	      6.26548      4.20870      6.24062         0.101818      0.011961      0.034953
Fe	      4.21622      4.14740      0.12245        -0.132660      0.006664     -0.083395
Fe	      8.35794      6.28855      6.29251         0.005695     -0.068961     -0.135091
Fe	      2.05222      4.23173      6.16399         0.029682     -0.002172      0.021502
Fe	      6.25255      6.27507      8.33648         0.018957     -0.151303      0.147084
Co	      6.31658      8.40186     10.30602         0.012434     -0.086418      0.191478
Ni	      2.15088      8.31481      6.29795         0.097071     -0.013010     -0.253326
Ni	      4.20325      6.28429     10.30948        -0.091926      0.001003     -0.014256
O	      2.11245      2.08746      2.02654        -0.018179      0.010255      0.211008
O	      4.17345      4.16554      2.13226        -0.035818      0.049376      0.194685
O	      4.35992      2.19372      4.20177        -0.077804      0.194779     -0.024025
O	      6.25267      4.09234      4.19995        -0.148340     -0.194526     -0.031122
O	      6.20431      2.13266      6.30867         0.035332      0.095892     -0.743015
O	      8.33785      4.25168      6.18259        -0.068993      0.119608      0.089517
O	      2.22797      4.16805      4.22111         0.026913     -0.008157     -0.090946
O	      4.19434      6.10126      4.14052         0.019294     -0.221213      0.034399
O	      4.23021      4.13711      6.06493        -0.087975      0.025957      0.014438
O	      6.33284      6.24022      6.19283        -0.019824      0.066823      0.001554
O	      6.24961      4.35084      8.22661        -0.019173     -0.182060     -0.047359
O	      8.16495      6.30057      8.23303         0.166931      0.033494      0.057975
O	      2.02140      6.21609      6.27119         0.091483     -0.158460      0.025992
O	      4.23509      8.46351      6.13632         0.168677     -0.086137     -0.007642
O	      4.38912      6.28604      8.29971        -0.182407      0.003298     -0.127116
O	      6.30865      8.20876      8.19554        -0.023348      0.306660      0.749460
O	      6.25546      6.45298     10.42838         0.080093      0.290126     -0.040019
O	      8.19490      8.43101     10.45432        -0.016726     -0.077635     -0.126616
