# total energy = -213.47511796 eV
 
CRYSTAL
PRIMVEC
0.011702 6.375159 6.271729 
6.176000 0.004859 6.278419 
4.118007 4.255125 0.002460 
PRIMCOORD
36 1
Li	      6.20169     10.59501      8.41120        -0.074887     -0.019428      0.068700
Li	      6.15127      2.16725      4.16550         0.001336      0.063119     -0.039151
Li	      6.19188      6.37287      4.33015         0.073578     -0.023384      0.091482
Li	      4.12584      4.25103      4.29884        -0.023938      0.009263      0.116979
Li	      8.12475      6.45644      6.24194        -0.016583      0.031791     -0.005164
Li	      6.10731      4.32626      6.22974        -0.016674      0.071654      0.032088
Li	      2.13491      4.18162      6.25910         0.025477     -0.134300     -0.029346
Li	      4.23080      6.30364      6.24117         0.049693     -0.077429     -0.029536
Li	      6.16601      6.42716      8.22762         0.002643      0.024509     -0.128575
Cr	      8.09789      4.34151      4.17085        -0.154769     -0.003551      0.282012
Cr	      4.12024      6.35957      2.12455         0.116357      0.153402     -0.037589
Fe	      0.03788      6.39787      6.27033        -0.191623      0.081359      0.100723
Fe	      8.23255      8.48949     12.54060        -0.061237      0.257155      0.098706
Fe	      0.09664      4.20566      4.19531        -0.053728      0.062731     -0.119817
Fe	      4.01509      4.30271      8.23032         0.157635     -0.147417      0.161022
Co	      4.21909      8.47201      8.36926         0.134124     -0.206808      0.260988
Co	      8.20467      4.29503      8.37932        -0.047555     -0.066335     -0.237294
Cu	      2.05793      6.34157      4.18902         0.010453     -0.137402     -0.072620
O	      6.18724      6.37058      6.26201        -0.013807      0.005468      0.072275
O	      2.07352      2.18679      1.98481         0.502276     -0.287166      0.088241
O	      4.10711      4.31233      2.03786         0.137414     -0.718015      0.077835
O	      4.19470      1.92619      4.08635         0.034606      0.194121     -0.888439
O	      6.31899      4.24879      4.20885         0.074863      0.009534     -0.033369
O	      6.23343      2.04900      6.36536        -0.145215      0.027712      0.040399
O	      8.27669      4.21498      6.24237        -0.012037      0.029701     -0.248187
O	      2.00554      4.13634      4.11506         0.211672      0.243118      0.230951
O	      4.04161      6.45097      4.11813         0.035336     -0.118267      0.118497
O	      4.11903      4.25474      6.39486         0.012918      0.003977     -0.455417
O	      6.10392      4.13833      8.44307         0.061396     -0.117253      0.076696
O	      8.29805      6.41918      8.47955        -0.070073      0.085327      0.079228
O	      2.02354      6.49190      6.15886         0.213766     -0.140414     -0.021849
O	      4.09272      8.58012      6.28340         0.206248     -0.061927      0.701806
O	      4.10810      6.32916      8.49421         0.007166      1.035436     -0.179580
O	      6.21353      8.50875      8.37130        -1.100830     -0.091913      0.025448
O	      6.16806      6.28742     10.53592        -0.016026     -0.015181     -0.108637
O	      8.31525      8.73815     10.48467        -0.069977     -0.023186     -0.089504
