# total energy = -215.70288485 eV
 
CRYSTAL
PRIMVEC
0.022421 6.199883 6.270864 
6.133422 0.012004 6.281197 
4.089078 4.140187 0.007823 
PRIMCOORD
36 1
Li	      8.17955      2.15545      6.32206         0.005572      0.016076      0.204976
Li	      4.03995      2.10854      2.11913        -0.117539      0.146061      0.055101
Li	      4.14252      6.18242     10.43499         0.078952      0.056874      0.026093
Li	      4.06445      6.20543      2.13271         0.096410     -0.103161      0.087901
Li	      8.22112      4.18274      8.35946         0.158359     -0.120300      0.025419
Li	      4.06905      4.14296      4.10968        -0.019526      0.046203     -0.158574
Li	      8.18986      6.20382      6.34509         0.006230     -0.061502     -0.060487
Li	      6.11852      4.16464     10.38741         0.042311      0.029958      0.019202
Li	      6.17262      6.16134      8.42477        -0.026198      0.027921      0.094312
Cr	     10.16316      4.13581      6.31742        -0.021977      0.010758     -0.121159
Cr	      6.10005      4.16484      2.13698        -0.239171      0.144066      0.045791
Fe	      6.05278      2.04022      4.18391        -0.315097     -0.183944      0.032896
Fe	      2.12744      2.15752      4.11315        -0.147657     -0.081360      0.035782
Fe	      6.25255      4.06929      6.36501         0.128720     -0.013475     -0.622500
Fe	      4.12759      6.26911      6.26543        -0.050033      0.215247     -0.580367
Co	      6.16911      8.25419      6.29394        -0.182010     -0.017861     -0.152529
Co	      8.20472      8.24515      8.37311        -0.078932     -0.255134      0.265419
Ni	      8.21123      6.19413     10.38479         0.092607     -0.209409      0.286133
O	      2.04409      1.99729      2.19895        -0.012831     -0.042378     -0.387958
O	      4.13564      4.14990      2.00088         0.038537      0.011982     -0.014684
O	      4.09824      2.07113      4.15294         0.162382     -0.024638     -0.012927
O	      6.12159      4.12812      4.19608         0.015418      0.048720      0.121345
O	      6.15533      2.06824      6.18467         0.055736      0.006381      0.082866
O	      8.16128      4.12796      6.32606         0.050881      0.023330      0.041868
O	      2.07955      4.13102      4.35583        -0.015461     -0.096951      0.225722
O	      4.11035      6.21115      4.28476         0.246614      0.008864      0.325245
O	      4.06314      4.19229      6.41564         0.027227     -0.124513      0.287249
O	      6.12718      6.26949      6.21164         0.011498     -0.002904      0.204516
O	      6.02839      4.15676      8.26487        -0.343022      0.016011      0.299449
O	      8.18257      6.38037      8.41515         0.016018      0.591000     -0.651484
O	      2.04529      6.07924      6.32059         0.000691     -0.050618      0.272146
O	      4.21470      8.27785      6.30719         0.148420      0.023300      0.092616
O	      4.04783      6.08052      8.27390         0.059029     -0.405212      0.146389
O	      6.23652      8.31534      8.30646         0.289209     -0.042080     -0.051843
O	      6.19582      6.25872     10.54221        -0.402234     -0.060689      0.085975
O	      8.11043      8.23886     10.28346         0.240868      0.473378     -0.549901
