# total energy = -216.71303051 eV
 
CRYSTAL
PRIMVEC
0.031990 6.272749 6.235945 
6.215010 0.010688 6.257192 
4.154500 4.207075 -0.004017 
PRIMCOORD
36 1
Li	      6.36238     10.42156      8.36858        -0.000363      0.064896      0.101175
Li	      4.13258      6.30481     10.32866        -0.071665      0.023049      0.046876
Li	      6.24509      8.44530     10.33532        -0.010241      0.080077      0.040534
Li	      4.20312      4.17021      4.30886         0.082010      0.031600      0.032100
Li	      4.15069      2.26341      6.25456         0.030776      0.023685     -0.002162
Li	      6.15802      4.19143      6.20275        -0.080778     -0.055584     -0.068000
Li	      8.31365      6.34927     10.42597         0.041111     -0.033030     -0.044530
Li	      4.14224      6.13553      6.33884         0.025633     -0.010662     -0.035622
Li	      4.09501      4.20740      8.25921         0.022551     -0.035632      0.020649
Cr	      2.12223      8.32219      6.21079        -0.032181      0.085104     -0.143206
Cr	      4.15433      6.25925      2.08079         0.016185     -0.014500      0.139212
Fe	      6.26595      6.31201     12.39461        -0.152409      0.025457      0.004352
Fe	      8.31330      4.25026      8.30785        -0.039892     -0.057111      0.185642
Fe	      6.30483      6.20503      4.28019        -0.049022      0.217468     -0.051247
Fe	     10.31974      8.39221     10.37687         0.114519     -0.240039      0.082842
Co	      4.21201      8.36764      8.32709        -0.005784      0.007817      0.251635
Co	      2.13139      4.20206      6.27117         0.279955     -0.042183     -0.118534
Co	      6.21660      6.30658      8.32004        -0.297191      0.517731     -0.261500
O	      2.10759      2.14038      2.04174        -0.046870     -0.042972     -0.101144
O	      4.09514      4.20120      2.01614         0.094262     -0.056124     -0.063163
O	      4.07500      2.12526      3.98519         0.406447      0.092777     -0.118680
O	      6.22375      4.40607      4.21901        -0.019064     -0.744975     -0.024105
O	      6.30473      2.03868      6.31085        -0.033441     -0.033652      0.077458
O	      8.36065      4.08218      6.32173         0.007669     -0.074790     -0.062579
O	      2.02427      4.01449      4.21369        -0.002003      0.405520      0.024768
O	      4.27654      6.35050      4.06020        -0.307357      0.020659     -0.130485
O	      3.99855      4.20351      6.29421        -0.192117      0.057390      0.026478
O	      6.26815      6.45834      6.23928        -0.035218      0.078401      0.741937
O	      6.27328      4.09358      8.36326        -0.004202      0.361457     -0.088540
O	      8.37097      6.19201      8.36646        -0.426306      0.050068      0.000329
O	      2.02924      6.25333      6.22767         0.062157     -0.045770      0.078807
O	      4.18899      8.43078      6.27593         0.033511      0.009892     -0.055226
O	      4.23923      6.49148      8.31704         0.777492     -0.081174     -0.049164
O	      6.11554      8.41934      8.21163         0.013091     -0.676314     -0.038175
O	      6.27455      6.17776     10.41955        -0.040570      0.109085     -0.424956
O	      8.39143      8.36959     10.49547        -0.160693     -0.017623      0.026225
