# total energy = -209.51205724 eV
 
CRYSTAL
PRIMVEC
0.010814 6.438658 6.174996 
6.169016 0.008215 6.178152 
4.096452 4.277416 0.022552 
PRIMCOORD
36 1
Li	      2.09873      8.53293      6.22398        -0.084018     -0.070681      0.020784
Li	      4.09897      8.54651      8.22089         0.020533     -0.079030      0.078766
Li	      4.14333      6.52790     10.21651         0.014752      0.093501     -0.064488
Li	      0.06413      2.10023      2.07183         0.047114     -0.008665      0.037697
Li	      2.10140      2.12854      4.08710         0.045312     -0.053517     -0.048477
Li	      4.09463      4.27410      4.12558        -0.021563      0.002440      0.037609
Li	      6.11761      8.54431      6.21622         0.091552      0.012591      0.027213
Li	      4.07098      4.38132      8.22287        -0.101561      0.078024      0.033732
Li	      6.08629      6.45305      8.23364        -0.119720      0.055531      0.011778
Cr	      6.19047      4.33528      6.22161        -0.129756     -0.028238     -0.108313
Cr	      8.21103      6.41407     10.21582        -0.013427      0.135742      0.509026
Fe	      2.07314      0.08532      2.08952        -0.150023     -0.420054      0.182476
Fe	      6.16004      2.22695      4.11037         0.078828      0.010632     -0.189455
Fe	      4.08399      2.26495      6.24544         0.029215     -0.009607     -0.036111
Fe	     10.24556      8.53376     10.29847        -0.192512     -0.003847     -0.417461
Cu	      4.10819     10.62045      6.22755         0.119782     -0.193403     -0.184675
Cu	      2.09882      4.21046      2.07709         0.107344     -0.179375      0.167767
Ni	      4.11492      6.40663      6.20198        -0.092221     -0.094291     -0.116684
O	      4.10393      8.43434      6.03167         0.023914      0.356228      0.444119
O	      3.97103      6.45225      8.20842         0.674539     -0.028717     -0.251664
O	      2.05327      1.93252      2.08051         0.066959      1.147868     -0.079286
O	      4.18561      4.28916      2.00836        -0.476036     -0.098360     -0.165141
O	      4.28537      2.13482      4.23612        -0.387701     -0.004110      0.103102
O	      6.21026      4.26336      4.18044        -0.015488      0.018954      0.211920
O	      6.14300      2.33007      6.08605         0.002392     -0.139181      0.261292
O	      8.24639      4.40174      6.31877        -0.019112      0.184869     -0.133552
O	      2.00575      4.37805      4.00528         0.001504     -0.092539      0.129327
O	      3.93157      6.48010      4.13552         0.710914      0.107240      0.313582
O	      4.18613      4.26647      6.20131         0.090362      0.108375      0.058314
O	      6.22756      6.35673      6.19287        -0.119574     -0.097519      0.009949
O	      6.22762      4.28623      8.26070         0.088910      0.003950     -0.182308
O	      8.19913      6.50737      8.35929        -0.033853     -0.356405     -1.226368
O	      2.00469      6.34640      6.04200         0.023723      0.002820      0.599882
O	      6.13234      8.75837      8.40904        -0.050667     -0.231474     -0.200409
O	      6.25621      6.40064     10.34949        -0.575320     -0.129321      0.154666
O	      8.13810      8.44611     10.31326         0.344902     -0.000431      0.011392
