# total energy = -207.97504646 eV
 
CRYSTAL
PRIMVEC
0.005671 6.309431 6.203020 
6.246823 -0.031572 6.239874 
4.152631 4.219097 -0.008879 
PRIMCOORD
36 1
Li	      6.32969     10.41866      8.31977        -0.001762     -0.075146     -0.059211
Li	      6.20496      2.18535      4.13381        -0.062760      0.010785      0.018954
Li	      6.25118      6.26674      4.29759         0.043394     -0.022970     -0.069798
Li	      4.08258      2.24391      6.15848         0.315392      0.073566     -0.034213
Li	      6.10739      4.27719      6.15261        -0.080170     -0.373701     -0.024776
Li	      2.09963      6.32479      4.13624         0.025965      0.013665      0.025578
Li	      2.21806      4.08583      6.19654         0.055454      0.303796      0.048169
Li	      4.24635      6.15908      6.22618        -0.312791     -0.076939      0.027719
Li	      4.06345      4.23316      8.23534        -0.014838      0.005393     -0.174848
Cr	      6.28925      6.29456     12.40413         0.070068      0.012929      0.091066
Cr	     10.37671      6.31454      8.30422        -0.095866     -0.036886     -0.052499
Fe	      8.29581      8.34929     12.39812        -0.005948      0.085156      0.232938
Fe	      4.28485      8.27346      8.33843         0.225342      0.125353     -0.291868
Fe	      8.29835      4.26694      8.32954         0.046958     -0.036350     -0.143121
Fe	      4.21590      8.35670      4.18815         0.032235      0.159610     -0.008223
Ni	      8.23634      4.23344      4.17859        -0.153522     -0.026691     -0.207872
Ni	      6.25951      6.31060      8.26730        -0.068328     -0.358209      0.116503
Ni	      4.20257      4.22037      4.19080        -0.244688     -0.119698     -0.709942
O	      4.16147      4.21533      6.03231        -0.032546      0.032174      1.109093
O	      6.25138      6.28023      6.34618         0.087358      0.104046     -0.675358
O	      2.05006      2.19476      1.89479        -0.034937      0.022859      0.086396
O	      4.10874      4.26529      2.06132        -0.042691      0.061295     -0.212974
O	      4.11810      2.09517      4.03701        -0.041407     -0.042585      0.287370
O	      6.11644      4.23159      4.13380         0.716435      0.019623      0.144228
O	      6.26025      1.97661      6.29678        -0.059694      0.034126     -0.011529
O	      8.40561      4.03637      6.25666        -0.023845      0.085809      0.006675
O	      2.11771      4.20567      4.05941        -0.239404     -0.027961      0.174738
O	      4.17098      6.39159      4.05034         0.004494      0.004918      0.007792
O	      6.28493      4.13255      8.39192        -0.037015     -0.241432     -0.038536
O	      8.37340      6.22289      8.27666         0.299139      0.019541      0.030592
O	      1.99410      6.50049      6.20430        -0.010257     -0.181429     -0.041922
O	      4.16210      8.51928      6.22606        -0.010242     -0.011269     -0.065528
O	      4.19204      6.33100      8.33949        -0.343344     -0.104869      0.157907
O	      6.20727      8.32506      8.25747        -0.038273      0.614985      0.042021
O	      6.20983      6.16030     10.40346        -0.044848     -0.068730      0.424811
O	      8.37407      8.43381     10.52690         0.076942      0.015236     -0.210333
