# total energy = -217.17110358 eV
 
CRYSTAL
PRIMVEC
-0.011567 6.369093 6.233410 
6.205393 0.007339 6.214293 
4.140196 4.236663 0.001450 
PRIMCOORD
36 1
Li	      2.11819      8.37049      6.24386         0.000012     -0.042954     -0.020283
Li	      2.10030      6.35695      8.24622         0.007773     -0.004046      0.000037
Li	      6.26299      8.41391     10.21814        -0.004227     -0.057089     -0.026645
Li	      2.01911      4.25802      2.15770        -0.013856      0.054077      0.034558
Li	      6.15134      4.27449     10.29441        -0.010596      0.001338     -0.059724
Li	      8.23601      6.43509     10.32841         0.008986      0.043373     -0.022867
Li	      4.03646      6.44631      6.29282        -0.004177      0.030866      0.027817
Li	      8.27117      8.46404      8.40439         0.045310     -0.027382      0.080543
Li	      6.19290      6.41364      8.41275         0.013436     -0.004017      0.017681
Cr	      6.21221      6.39200     12.43777        -0.064565     -0.015968     -0.004259
Cr	      8.29304     10.43124     10.28177         0.013774     -0.031123      0.045108
Fe	      2.03297      2.15415      4.07189        -0.112313     -0.076378      0.069341
Fe	      4.13219      4.26295      4.03966         0.058720      0.020728      0.002198
Fe	      8.26321      6.38855      6.33592         0.040793     -0.062859     -0.055186
Fe	      6.20984      4.25232      6.31804         0.088633     -0.041672     -0.063279
Fe	      2.03653      4.35738      6.30412         0.161868     -0.113094     -0.141352
Co	      6.21321      2.14880      8.28495        -0.049324      0.039550     -0.046806
Cu	      4.14132      8.43250      8.27295        -0.044340     -0.121630     -0.037899
O	      4.12331      6.30450      8.47649         0.014890      0.103616     -0.224116
O	      2.04153      2.14117      2.12588        -0.016753     -0.011607     -0.040449
O	      4.13275      4.43033      2.06478         0.029974      0.043017     -0.114471
O	      4.09456      2.12994      4.11225         0.102516      0.038012      0.142199
O	      6.20149      4.27714      4.23670         0.017088      0.019266     -0.049713
O	      6.16799      2.11829      6.32117         0.063130      0.005528      0.049812
O	      8.27975      4.36349      6.06721         0.053763     -0.013538      0.078765
O	      2.14578      4.14545      4.24188        -0.101322      0.076462      0.009481
O	      4.17887      6.28917      4.03143        -0.045963      0.030075     -0.027472
O	      4.16083      4.18718      6.12060        -0.101429      0.028223      0.033519
O	      6.25529      6.31368      6.20161        -0.131258      0.125611     -0.078180
O	      6.23539      4.09789      8.20352        -0.039614     -0.024964      0.195420
O	      8.39877      6.37589      8.24338         0.037000      0.033500      0.164069
O	      1.99377      6.31186      6.19343         0.056373      0.048367      0.037814
O	      4.16899      8.59360      6.30943        -0.148658      0.057825     -0.080801
O	      6.13619      8.46362      8.22110         0.003768     -0.009512      0.109638
O	      6.08878      6.35628     10.45463         0.060300     -0.000579     -0.028122
O	      8.24576      8.64303     10.42583         0.010286     -0.141022      0.023627
