# total energy = -215.89415722 eV
 
CRYSTAL
PRIMVEC
-0.021029 6.331685 6.192431 
6.266266 0.002049 6.169268 
4.178574 4.206760 0.000223 
PRIMCOORD
36 1
Li	      4.12181      4.27998      0.19905        -0.073576      0.040368      0.138711
Li	      2.03204      2.14177      0.12677        -0.034677      0.093382      0.057521
Li	      6.07942      4.24092      2.02686        -0.279069      0.248592     -0.000410
Li	      4.18600      2.20827      2.03034        -0.224167      0.347729      0.032201
Li	      4.19279      6.15855      1.95845         0.204154     -0.352790     -0.051026
Li	      8.47905      4.24219      8.12316         0.240954     -0.196698     -0.115891
Li	      4.21031      4.16986      3.99811         0.027195     -0.088453     -0.143407
Li	      8.41940      6.25882      6.23474         0.072036     -0.087810     -0.114354
Li	      8.31626      8.39430      8.23434         0.047603      0.017564     -0.001597
Cr	      6.24791      4.23951     10.27041         0.006936     -0.211553      0.319612
Cr	      6.29235      8.41026      6.25005         0.018545      0.209883     -0.343351
Fe	      8.32062      4.24510      4.14367        -0.181202      0.030313      0.230757
Fe	      2.14142      2.12534      3.90460         0.100267     -0.101195      0.079645
Fe	      6.26136      4.09433      6.27183         0.194166     -0.160765     -0.545643
Fe	      8.38315      6.36357     10.22196         0.269765     -0.041873      0.748227
Fe	      4.13315      6.32806      6.30800        -0.236178      0.053313     -0.368941
Co	      6.26861      6.32922      8.24295         0.061677      0.076714     -0.032799
Ni	      6.22293      2.14615      4.08818        -0.117236      0.176654      0.292390
O	      4.16727      4.21125      2.08099        -0.027116      0.004762      0.021096
O	      2.06155      2.10193      2.09925        -0.017303      0.001573     -0.327561
O	      4.12469      2.01536      4.11891        -0.001147      0.153191      0.000697
O	      6.31425      4.26324      4.16602        -0.092962      0.009242     -0.001488
O	      6.22130      2.20354      6.12191        -0.022625     -0.064051      0.066355
O	      8.27662      4.20486      6.06421        -0.102882     -0.001977      0.412981
O	      2.00242      4.20364      4.21777        -0.063052      0.125046      0.069616
O	      4.16436      6.43929      4.16817        -0.016723      0.150531     -0.074208
O	      4.17192      4.33808      6.17525        -0.045200     -0.149217      0.132874
O	      6.21689      6.34651      6.26358         0.119727      0.058287      0.195183
O	      6.25968      4.37380      8.23917        -0.071359      0.178363      0.283784
O	      8.19960      6.31535      8.33528        -0.293318      0.017390     -0.539798
O	      2.15003      6.21124      6.10994        -0.070926     -0.083619      0.016379
O	      4.27562      8.33546      6.11450         0.042298      0.085766     -0.085856
O	      4.30545      6.32127      8.27887         0.348527     -0.078366     -0.004208
O	      6.26971      8.27171      8.24246         0.032696     -0.204019     -0.082618
O	      6.25633      6.29794     10.19849         0.114230     -0.067289     -0.130321
O	      8.39183      8.42006     10.30962         0.069945     -0.188988     -0.134550
