# total energy = -220.08083155 eV
 
CRYSTAL
PRIMVEC
-0.030421 6.262991 6.269532 
6.179210 0.003529 6.235552 
4.122390 4.155749 -0.000592 
PRIMCOORD
36 1
Li	      4.07491      8.37161      8.26963         0.004860      0.016728     -0.059876
Li	      4.10951      6.23845      2.14201         0.009160     -0.030616      0.020956
Li	      4.05073      4.24777      4.33794         0.007063      0.020035      0.110089
Li	      4.08482      2.20061      6.22091        -0.020753      0.027709      0.012338
Li	      6.07082      4.18094      6.26965        -0.000366      0.002077      0.016633
Li	      4.11931      8.25193      4.25710         0.028460     -0.019402      0.002156
Li	      2.19014      6.19458      4.22385         0.061890     -0.020292     -0.017973
Li	      2.05785      4.19189      6.16426        -0.029861      0.014682     -0.065942
Li	      4.08504      6.22756      6.13268        -0.016188      0.004785     -0.014131
Cr	      2.02190      0.02395      2.03409        -0.077688      0.056116     -0.125834
Cr	      8.24375      4.15001      4.20569         0.037316     -0.044488      0.086220
Fe	      6.11785      2.07616      4.23761         0.017795      0.028260      0.006278
Fe	      2.09611      4.16461      2.13522         0.013671      0.012746     -0.107153
Fe	      6.05397      6.29254      4.30107         0.187477      0.020463     -0.040984
Fe	      4.17281      4.10121      8.18195         0.032671     -0.027193      0.219814
Fe	      6.16282      6.25704      8.19309        -0.079611      0.077394      0.088026
Co	     -0.01753      6.24091      6.25253         0.031917     -0.037744      0.016177
Co	      2.05773      8.32952      6.26739         0.043761     -0.033156      0.025198
O	      2.06005      2.07153      1.98884         0.045412     -0.085388      0.012522
O	      4.12465      4.16364      1.90054         0.061771     -0.021348     -0.023944
O	      4.12683      1.98427      4.19613        -0.137325      0.003985     -0.027842
O	      6.22724      4.16398      4.07373        -0.026930     -0.032199      0.037872
O	      6.29326      1.98071      6.19673         0.028422     -0.020660      0.046033
O	      8.35124      4.02842      6.24570        -0.022768      0.006425     -0.002701
O	      2.10676      4.08320      4.05358        -0.010596      0.091601      0.131575
O	      4.19865      6.22706      4.16636        -0.173473     -0.009543     -0.052796
O	      4.10893      4.16761      6.34273        -0.058665      0.054650     -0.157507
O	      6.14735      6.27943      6.27439         0.003795     -0.005738     -0.023722
O	      6.18928      4.27267      8.31952         0.005190     -0.105133      0.021192
O	      8.15181      6.23064      8.34876         0.085119      0.032290      0.003619
O	      1.92942      6.37429      6.31749         0.010529     -0.008981      0.023669
O	      3.98237      8.47765      6.25291        -0.034504      0.042085      0.012749
O	      4.07952      6.18260      8.44817        -0.009595      0.058687      0.009931
O	      6.22084      8.35979      8.42010        -0.069942     -0.005240      0.012439
O	      6.08490      6.32387     10.46821         0.005940     -0.076565     -0.060202
O	      8.14676      8.39973     10.53398         0.046044      0.012968     -0.134877
