# total energy = -214.47749074 eV
 
CRYSTAL
PRIMVEC
0.008455 6.176858 6.427407 
6.127954 0.008540 6.427450 
4.096960 4.129800 -0.006141 
PRIMCOORD
36 1
Li	      6.09691      0.02414      6.38916         0.045357     -0.038134     -0.030560
Li	      2.06775      6.17098      8.54415        -0.028762      0.001779     -0.036924
Li	      8.19168      4.13126      4.29906        -0.014680      0.061476      0.019954
Li	      2.07415      4.08866      2.09878         0.035642     -0.025596     -0.015405
Li	      6.15611      6.19212      4.33385         0.001050     -0.000839      0.076342
Li	      8.15304      6.16930      6.41124         0.026885     -0.012502     -0.043255
Li	      2.05056      6.20177      4.34538         0.006612     -0.061192      0.099418
Li	      2.08345      4.13741      6.41565        -0.073302      0.051149     -0.066438
Li	      4.10238      6.17366      6.44519        -0.063724      0.079197     -0.009065
Cr	      2.07761      8.16636      6.41671        -0.058435     -0.297980      0.021865
Cr	      6.18631      6.17766      8.53966         0.024266      0.046929      0.189928
Fe	      4.05829      2.02750      2.17474        -0.037726      0.228710     -0.249599
Fe	      4.05245      6.13258      2.15525         0.173843     -0.115379     -0.017406
Fe	      4.02051      4.12416      4.32496        -0.091988      0.096708     -0.197367
Fe	      6.17193      4.19660      6.32866        -0.084655     -0.159488     -0.092680
Fe	      0.07763      4.15344      4.34719         0.286817     -0.111399      0.327436
Cu	      4.03599      4.18868      8.51140        -0.006559      0.013614     -0.213363
Ni	      6.16089      8.20862     10.72115        -0.031519     -0.080710      0.104249
O	      2.02261      6.34863      6.44898         0.080723      0.276051      0.078178
O	      2.05267      2.04742      2.00639        -0.089639      0.101087     -0.251039
O	      4.05873      4.13737      2.28828         0.014963     -0.041026     -0.103705
O	      4.10161      2.09776      4.15883        -0.083622     -0.127800     -0.023466
O	      6.03406      4.07921      4.34843         0.161806      0.101349     -0.053445
O	      6.20534      2.09914      6.48492        -0.264805     -0.019855      0.102887
O	      8.09982      3.99370      6.42886         0.207670     -0.023541      0.104802
O	      2.03133      4.12295      4.34312         0.053119      0.027858     -0.085085
O	      4.13635      6.23884      4.14992        -0.061698     -0.031926     -0.106488
O	      4.12623      4.14408      6.23371        -0.076879     -0.063099      0.554738
O	      6.16407      6.10586      6.55658         0.010036      0.119537     -0.015625
O	      6.06785      4.13714      8.60728         0.011907     -0.012847     -0.094744
O	      8.20957      6.31980      8.51128        -0.074134      0.017507     -0.009083
O	      4.02434      8.28860      6.43208         0.185050     -0.130944      0.106203
O	      4.16699      6.20439      8.56349        -0.042703     -0.106397      0.046579
O	      6.12801      8.19051      8.59471         0.060888      0.041195     -0.087498
O	      6.17435      6.12393     10.58129        -0.038862      0.101784     -0.127922
O	      8.27473      8.24734     10.88471        -0.162942      0.094725      0.097584
