# total energy = -213.57437331 eV
 
CRYSTAL
PRIMVEC
0.012825 6.489283 6.223959 
6.068552 0.017490 6.219391 
4.070685 4.349349 -0.013554 
PRIMCOORD
36 1
Li	      4.05287     10.71985      6.15705        -0.001274     -0.047601     -0.015135
Li	      8.11442      8.75207     12.36035        -0.083191      0.032499      0.029966
Li	      4.08120      2.20822      2.07217        -0.031267      0.124784      0.099123
Li	      4.10243      0.06948      4.18003         0.012128      0.095812      0.060108
Li	      6.03647      2.13994      4.18464        -0.088771     -0.042418      0.044164
Li	     10.11129      6.47111      8.24879         0.061518     -0.051986     -0.051302
Li	      4.07244      4.28431      4.13557         0.036410     -0.083757     -0.053048
Li	      4.08610      2.11514      6.18197         0.015251     -0.070202     -0.092048
Li	     10.11161      8.72839     10.41549         0.022958      0.072442     -0.010180
Cr	      6.09584      4.21970      6.18352         0.218586     -0.176902     -0.198419
Cr	      6.06757      6.51056      8.31317         0.077843      0.029059     -0.027172
Fe	      1.97860      0.10008      2.10265        -0.349805      0.041550      0.030302
Fe	      2.15009      4.27807      2.06788         0.003192     -0.216957      0.101850
Fe	      2.10927      2.17599      4.16334        -0.412828     -0.043642     -0.077935
Fe	      8.09844      6.62343     10.37948         0.074775     -0.137059      0.149986
Fe	      4.05588      6.67492      6.21551        -0.223321     -0.002417     -0.308408
Cu	      2.05752      4.37471      6.18869        -0.131678      0.014539     -0.211548
Cu	      8.14585      8.68141      8.31397         0.035992     -0.014192      0.066712
O	      4.18211      8.61627      6.20329         0.115200     -0.094099     -0.003785
O	      8.12592      8.54113     10.24937        -0.002832      0.146801     -0.144618
O	      1.97798      2.16774      2.16891         0.052875      0.131401     -0.203632
O	      4.10952      4.32450      2.01574        -0.101848     -0.005777      0.004835
O	      3.91605      2.18847      4.19030         0.748065      0.005628      0.053543
O	      6.08891      4.43976      4.13285         0.028466     -0.116732      0.128104
O	      6.02003      2.43658      6.19571        -0.017029      0.260527      0.015329
O	      7.99372      4.32381      6.29097        -0.179103     -0.014320     -0.017347
O	      2.05736      4.25554      4.13372        -0.114646      0.216560      0.061113
O	      4.06845      6.49260      4.22011        -0.067195      0.004959      0.148920
O	      4.10159      4.45525      6.31993         0.071456      0.113590      0.168933
O	      6.05446      6.29765      6.24049        -0.043785     -0.072220      0.141289
O	      6.07975      4.45056      8.20141         0.024931     -0.026796     -0.020951
O	      8.05603      6.30843      8.36073         0.099914      0.106568     -0.099529
O	      2.05008      6.63591      6.23408         0.169986     -0.002955      0.107915
O	      4.02960      6.60439      8.25464         0.053841     -0.207228     -0.076627
O	      6.17715      8.59227      8.18660         0.011822      0.047411      0.079154
O	      6.14095      6.50551     10.27543        -0.086636     -0.016868      0.120337
