# total energy = -221.11402826 eV
 
CRYSTAL
PRIMVEC
0.054150 6.320911 6.221694 
6.267366 0.049727 6.226043 
4.200227 4.238828 0.011299 
PRIMCOORD
36 1
Li	      6.26728      0.12843      6.26237        -0.010963      0.001881      0.000195
Li	      6.24634      4.23007      2.13361        -0.046520     -0.020824      0.050452
Li	      6.25078      2.18597      4.23204         0.004424     -0.036922     -0.001356
Li	     10.45756      6.36548      8.25561        -0.020286     -0.020532     -0.002434
Li	      4.32995      4.25956      4.24279         0.031515      0.036942     -0.055767
Li	      4.31849      2.30379      6.19651         0.039879      0.048854     -0.014177
Li	      6.12049      4.17295      6.20683        -0.026374     -0.047307      0.018801
Li	      4.23424      6.21469      6.22321         0.011312      0.016157      0.003272
Li	      4.22693      4.25121      8.14913         0.017188      0.025284      0.053026
Cr	      2.16828      6.33672      4.14991         0.012221      0.013814     -0.053772
Cr	      2.20796      4.24949      6.23853         0.003887      0.047272      0.011163
Fe	      8.20596      2.09150      6.28711         0.135973     -0.009629      0.016496
Fe	      4.21376      2.18370      2.06427        -0.012833     -0.051005      0.050126
Fe	      8.28978      4.32585      4.21246         0.140049     -0.110394      0.064360
Fe	      8.44947      4.31046      8.18115        -0.042568     -0.008393      0.025452
Fe	      4.22992      8.41329      4.17935        -0.032737      0.072507     -0.025327
Fe	      6.30949      6.33535      8.20693         0.001800      0.026451     -0.010214
Co	      6.29356      6.33786      4.19190        -0.027027     -0.112635     -0.004902
O	      2.14654      2.17965      2.14194        -0.014449     -0.041808      0.052094
O	      4.12433      4.14897      2.11824         0.094910      0.045254      0.002524
O	      4.03441      2.07003      4.12577        -0.014324      0.074025      0.060884
O	      6.34915      4.43579      4.16286        -0.143240      0.005231      0.034358
O	      6.35536      2.14031      6.22062        -0.225715     -0.014458     -0.015400
O	      8.40845      4.14075      6.21071         0.018827     -0.000261     -0.047379
O	      2.07456      4.22330      4.18006         0.053175      0.063057      0.007746
O	      4.25312      6.44741      4.11818         0.046961     -0.077624      0.000873
O	      4.12737      4.25436      6.22691        -0.027281      0.039349     -0.033089
O	      6.31817      6.46611      6.17361        -0.001181      0.057905     -0.049394
O	      6.39260      4.34150      8.35405        -0.035619     -0.021773     -0.044920
O	      8.35667      6.30096      8.37318         0.043113      0.070770      0.034563
O	      2.15482      6.32710      6.14424         0.004303     -0.076673     -0.019067
O	      4.25299      8.44813      6.23949         0.031828     -0.021317     -0.025109
O	      4.31438      6.40838      8.41960        -0.055693      0.000375     -0.059541
O	      6.27189      8.40453      8.25837         0.086727      0.018321      0.010440
O	      6.36896      6.30716     10.30785         0.012697      0.010387      0.042922
O	      8.47236      8.43600     10.43985        -0.053980     -0.002280     -0.077897
