# total energy = -218.21245793 eV
 
CRYSTAL
PRIMVEC
0.022249 6.092589 6.343487 
6.349748 -0.000524 6.366495 
4.232309 4.076100 0.000586 
PRIMCOORD
36 1
Li	      8.43389      2.07190      6.32073        -0.001684      0.027537     -0.005750
Li	      4.24287      2.02662      2.33634         0.026171      0.037442      0.075647
Li	      8.37329      4.08766      4.30023         0.011419     -0.038602      0.021628
Li	      6.30591      2.09802      4.23838        -0.025137      0.009357      0.005331
Li	      2.25742      2.01396      4.22687        -0.006372      0.015279      0.024974
Li	      4.29074      3.99477      4.27977        -0.001124      0.037603      0.009441
Li	      6.32116      4.04118      6.32650        -0.008031     -0.024814      0.031337
Li	      2.16634      4.05440      6.32952        -0.003425     -0.005913     -0.014940
Li	      4.22990      4.07848      8.44386        -0.016784     -0.020836      0.009910
Cr	      6.40333      4.07729      2.22879        -0.060925     -0.028871      0.086590
Cr	      4.26131      6.05967      6.34279         0.090110     -0.051134      0.013658
Fe	      4.22430      4.05901      0.02476         0.061465     -0.068778     -0.106457
Fe	      2.09353      3.94791      2.12423         0.141138      0.060280     -0.006898
Fe	      4.23430      2.12552      6.22444        -0.002105     -0.087397      0.108980
Fe	     10.54348      8.13080     10.60139         0.097548      0.026305     -0.057575
Fe	      8.47125      6.14373     10.58595         0.053745     -0.150459     -0.011114
Fe	      6.28026      6.26154      8.43539         0.031304     -0.225352      0.125947
Cu	      6.35603      2.03000      8.46523         0.090552      0.083112     -0.002090
O	      6.38539      4.07756      4.00895        -0.020468      0.000687     -0.085136
O	      2.23264      1.95938      2.08934         0.109883     -0.193231      0.015266
O	      4.31860      4.13463      2.05910         0.058313     -0.178851      0.051475
O	      4.23144      2.00674      4.37124         0.007241      0.024354     -0.237134
O	      6.27968      1.98169      6.44194         0.005662      0.081424     -0.085877
O	      8.56683      4.10733      6.50156        -0.055874     -0.041699     -0.089712
O	      2.06792      4.10230      4.09975        -0.023489      0.003216      0.099883
O	      4.15752      6.10731      4.27264        -0.012864     -0.011627      0.079316
O	      4.26501      4.06964      6.34506        -0.031892      0.150937      0.030425
O	      6.31305      6.08569      6.47014        -0.060142     -0.002097     -0.096257
O	      6.42138      4.01576      8.54608        -0.129655      0.168197     -0.083036
O	      8.28575      6.04581      8.50901        -0.032428      0.032456     -0.069303
O	      2.16266      6.09001      6.36534        -0.005388      0.003022      0.077532
O	      4.29165      8.14386      6.21518        -0.008214     -0.062208      0.072634
O	      4.24809      6.09885      8.35635        -0.137424      0.002547      0.027152
O	      6.33886      8.21253      8.45606         0.027495      0.280992      0.008763
O	      6.42400      6.09106     10.60766        -0.081694      0.016246     -0.007332
O	      8.56458      8.07800     10.57539        -0.086927      0.130877     -0.017279
