# total energy = -218.77811576 eV
 
CRYSTAL
PRIMVEC
0.022912 6.274069 6.345116 
6.230989 0.030402 6.337518 
4.164712 4.188322 0.009677 
PRIMCOORD
36 1
Li	      4.16541      4.19705      0.11548         0.009589      0.009019      0.067118
Li	      6.18608      4.26535      2.19856        -0.113915      0.011778     -0.046612
Li	      4.12984      2.10253      2.17370         0.014832     -0.007322      0.014661
Li	      4.04366      0.10034      4.17192         0.041800     -0.008877     -0.046833
Li	      4.24724      6.21090      2.14013         0.014967     -0.003240      0.031571
Li	      6.26642      6.10239      4.17997        -0.003624      0.016003     -0.025838
Li	      6.22733      4.21142      6.24906         0.003360      0.014997     -0.045826
Li	      4.20256      6.24179      6.38404         0.035060     -0.006901      0.017990
Li	      4.18777      4.27767      8.35222         0.046407      0.005183     -0.025858
Cr	      6.23474      2.16930      4.18731        -0.063421      0.045806     -0.032341
Cr	      6.23863      8.41001      6.41803        -0.006006     -0.002558      0.042431
Fe	      2.08200      2.08586      0.08592        -0.009786      0.002226     -0.018557
Fe	      2.17461      4.11708      2.07724        -0.143340     -0.033955      0.108396
Fe	      4.19590      2.11571      6.29194         0.019111     -0.086856      0.050521
Fe	      4.15217      8.34020      4.24950         0.029866      0.037352      0.007163
Fe	      2.13910      6.28376      4.26097        -0.001695      0.015824     -0.045025
Fe	      6.16424      6.27429      8.43595         0.112329      0.054908     -0.058568
Ni	      4.22813      4.20726      4.22201        -0.037680      0.055165      0.007678
O	      2.07951      2.13838      2.01795         0.001392     -0.042528      0.129678
O	      4.05835      4.21775      2.19977         0.129395     -0.004818     -0.152861
O	      4.23794      2.11871      4.31588         0.023881     -0.108923     -0.100489
O	      6.24420      4.12369      4.18017         0.095955     -0.068608      0.032660
O	      6.24647      2.12543      6.21430        -0.000209     -0.003844      0.007043
O	      8.30780      4.21186      6.43120        -0.006253      0.013806     -0.081174
O	      2.04731      4.25358      4.33283        -0.041245     -0.031133     -0.071091
O	      4.09757      6.35250      4.18524         0.050860      0.012824      0.052625
O	      4.08076      4.12366      6.32679        -0.020111      0.079013      0.066193
O	      6.31522      6.39531      6.41277        -0.055773     -0.000946     -0.040815
O	      6.30173      4.29893      8.58292        -0.005333     -0.138213     -0.073356
O	      8.17206      6.22431      8.45776         0.176262      0.064455      0.040637
O	      2.09856      6.27899      6.29052         0.006913     -0.067332      0.041732
O	      4.16544      8.40644      6.23995         0.097646     -0.006297      0.063869
O	      4.38087      6.26638      8.44769        -0.329496      0.023991      0.017236
O	      6.25507      8.29322      8.45248         0.045128      0.115472      0.014241
O	      6.33117      6.34734     10.48496        -0.038585     -0.013841      0.073975
O	      8.33450      8.34991     10.66109        -0.078280      0.058368     -0.022174
