# total energy = -201.20112480 eV
 
CRYSTAL
PRIMVEC
-0.006774 6.172547 6.185053 
6.132157 -0.019900 6.198177 
4.073535 4.109335 0.001223 
PRIMCOORD
36 1
Li	      6.13143      6.15178     12.36894        -0.017998      0.006248     -0.031066
Li	      4.03503      2.13941      2.01089         0.033771      0.017521     -0.096309
Li	      6.15399      8.19310     10.36535        -0.005048     -0.075454     -0.031300
Li	      0.05403      2.02113      2.05473        -0.010747     -0.001477     -0.015254
Li	      2.08275      4.02136      2.06172         0.005589     -0.007422     -0.010753
Li	      6.15409      4.05191      6.20450         0.015166      0.012086      0.061566
Li	      2.03069      6.16122      4.18188        -0.065508      0.011451      0.010030
Li	      2.03393      4.11210      6.16705        -0.013260     -0.035918      0.071987
Li	      4.04147      6.20003      6.13966        -0.030859      0.038502      0.073453
Mn	      8.15307      8.19961      8.25107         0.033074     -0.079632     -0.080307
Cr	      4.15682      2.01359      6.20250         0.113807     -0.183989      0.117756
Cr	      6.10827      6.16831      8.24580        -0.009963      0.023603     -0.040395
Co	      2.00518      2.06111      0.04409        -0.060348     -0.079752     -0.046406
Cu	      4.04367      4.16191      4.09984        -0.034889     -0.029002      0.126945
Ni	      2.00085      0.02764      2.02862         0.106507     -0.146556     -0.049217
Ni	      8.15285      4.08767      4.15600        -0.051103      0.098586     -0.030203
Ni	      6.10117      6.18758      4.14464         0.019971     -0.039959      0.235802
Ni	      4.07263      8.20944      4.16413         0.092212     -0.002897     -0.020283
O	      2.03849      4.02154      4.14745         0.050735      0.089845      0.058134
O	      2.06134      2.04164      1.92462        -0.027326      0.210024     -0.264273
O	      4.14061      4.08667      2.17430        -0.182089      0.050693     -0.135331
O	      4.01626      2.06150      4.23287         0.038193      0.048147     -0.122650
O	      6.09854      4.23103      4.02519         0.095724     -0.047168      0.177771
O	      6.19374      2.04186      6.17455         0.082546      0.024360      0.020305
O	      8.15744      4.02014      6.15967         0.038085      0.017162      0.120998
O	      4.16504      6.14381      4.14410        -0.097373      0.068270      0.011232
O	      4.11900      4.00377      6.31901        -0.030180      0.034593     -0.012149
O	      6.25179      6.13204      6.27933        -0.102637      0.028931     -0.081403
O	      6.00279      4.19100      8.30181        -0.039611     -0.197132     -0.067650
O	      8.11310      6.25688      8.21324         0.090209      0.038764      0.054261
O	      1.98551      6.38058      6.26050         0.087165      0.024142     -0.315634
O	      3.85347      8.23558      6.15059        -0.029325     -0.007780      0.121836
O	      4.08346      6.01852      8.26139        -0.045278      0.049875     -0.123746
O	      6.22730      8.16083      8.24691         0.046875      0.052900     -0.011694
O	      6.08243      6.11624     10.17371         0.118981      0.098632      0.210306
O	      8.18400      8.21573     10.25750        -0.215067     -0.110198      0.113639
