# total energy = -91.63668807 eV
 
CRYSTAL
PRIMVEC
2.095247 4.327610 2.095060 
2.135769 -4.368578 2.135514 
4.250825 -0.000063 -4.250409 
PRIMCOORD
16 1
Li	      2.31051     -0.14934     -2.16081         0.370163      0.307603     -0.125727
Li	      2.30921     -0.02111      2.07076        -0.522888      0.057502      0.271405
Li	      2.23706     -2.25625     -0.02583         0.301658      0.003715      0.028107
Li	      4.44985     -2.10789     -2.09503        -0.048787     -0.206606      0.010962
Mn	      0.20394     -0.15171     -0.05333        -1.352027      4.218251      2.547810
Mn	      2.19660      2.24040     -0.02631         0.447271     -2.068667     -0.677123
Ni	      4.37173      2.24058     -2.20182        -0.587509     -0.837770      0.827133
Ni	      4.40910     -0.02012     -0.02862         0.094201      0.249106     -0.584066
O	      6.68601     -0.03386     -0.02829        -0.462940     -0.389174     -0.359793
O	      4.24881      2.11879     -0.01536        -0.957539     -0.800711     -0.003280
O	      4.40813     -0.00661     -2.30561         0.302620     -0.117837      0.409300
O	      4.38260     -0.20513      2.26163        -0.149949     -0.238178     -1.241563
O	      4.39551     -2.15953      0.13116        -0.197814      1.224960      0.850846
O	      2.18862      2.39708      2.07584         0.619421     -2.128758     -1.054038
O	      2.11789      0.16457     -0.00219         1.035125      0.405596      0.030163
O	      2.30439     -2.43661      2.19131         1.108993      0.320967     -0.930136
