# total energy = -199.43192812 eV
 
CRYSTAL
PRIMVEC
0.018628 6.189425 6.036076 
6.270145 0.011258 6.042977 
4.188527 4.139076 -0.000846 
PRIMCOORD
36 1
Li	      4.16408      2.12466      2.09538         0.062911     -0.051907      0.058149
Li	      4.26458      6.28828      9.98156         0.075594      0.048012      0.028028
Li	      6.18846      8.18317     10.02156        -0.076083     -0.034989      0.074093
Li	      4.14870      6.19344      2.06136        -0.045113      0.013868      0.116291
Li	      4.20565      4.09637      3.92619         0.026662     -0.012731      0.050186
Li	      4.20428      2.05303      6.02387        -0.046238      0.014781     -0.091618
Li	      6.28848      4.17709     10.01457        -0.026433      0.012415      0.063579
Li	      8.31224      6.24314      9.99474        -0.103326     -0.006860      0.011027
Li	      6.33822      6.15432      8.18455         0.036050     -0.029369      0.092638
Mn	      6.28679      8.22917      6.01547        -0.055367     -0.116709     -0.375374
Cr	      8.39403      8.27879     12.02295         0.045508      0.034169     -0.777587
Cr	      6.25443      4.13705      6.03805         0.077673     -0.152173     -0.377646
Co	      6.26965      4.14441      2.00813        -0.262133      0.194020      0.090384
Cu	      8.37019      4.25139      8.15784        -0.126060     -0.036202     -0.058737
Cu	      8.40384      8.21332      8.13356        -0.047286     -0.280421      0.197367
Ni	      6.24465      0.05303      6.00804        -0.090094      0.007075     -0.259413
Ni	      2.12504      2.05692      4.00347        -0.026154      0.095469      0.220501
Ni	      4.20898      6.19423      6.03379         0.039409      0.220989     -0.138121
O	      8.38963      6.19630      8.06922         0.114519      0.311815     -0.059310
O	      6.27233      6.22367     10.16805        -0.058675     -0.008813     -0.583481
O	      2.10617      1.96610      1.88568         0.039129     -0.309722      0.293734
O	      4.36022      4.15253      1.88302         0.438289      0.014996      0.564279
O	      4.01327      2.07203      4.03348         0.124398      0.008394     -0.027697
O	      6.28380      4.24903      3.96849         0.017713     -0.163474     -0.222036
O	      6.44282      2.11885      5.99263         0.076781      0.361634      0.220688
O	      8.33231      4.06154      6.17100        -0.313602      0.035201      0.169022
O	      2.13161      4.04507      4.07749         0.012023      0.021943     -0.024271
O	      4.38150      6.18712      4.14646        -0.046709      0.038216     -0.569197
O	      4.22945      4.15763      6.11484         0.070759     -0.244148     -0.071278
O	      6.20568      6.17087      6.07512         0.371863      0.064909      0.135151
O	      6.18170      4.11497      7.97026         0.262748     -0.014214      0.372429
O	      2.12619      6.22234      6.07968        -0.047736     -0.004340      0.283747
O	      4.14274      8.28822      6.04654        -0.216668     -0.131439      0.103067
O	      4.03638      6.12296      7.96235        -0.396113     -0.074998      0.337680
O	      6.31783      8.38193      7.94550         0.066496      0.155947      0.165152
O	      8.41150      8.26564     10.17919         0.025268      0.018658     -0.011428
