# total energy = -201.51803095 eV
 
CRYSTAL
PRIMVEC
0.014233 6.416531 6.310419 
5.999437 0.038636 6.287216 
4.023430 4.285608 0.002121 
PRIMCOORD
36 1
Li	      0.08129      6.41416      6.25300         0.008150      0.055775      0.134156
Li	      2.08417      8.48122      6.36557        -0.046843      0.009118      0.033965
Li	      2.02072      0.14094      2.02693        -0.074138      0.120564     -0.048143
Li	      8.00746     10.63892     10.55304        -0.117747      0.066847      0.100639
Li	      6.08078      8.60256     10.48090        -0.049797      0.067083      0.076376
Li	      4.13762      6.26544      2.14357         0.077714     -0.079149      0.000220
Li	      1.98083      2.14501      4.11260         0.019843     -0.007167     -0.105662
Li	      2.00905      6.44279      4.30290         0.129225      0.028442      0.006659
Li	      1.99710      4.47643      6.28077         0.043750      0.140434     -0.090806
Mn	      6.01792      4.38965     10.48746        -0.037096     -0.590311      0.151769
Cr	      4.06964      2.10414      6.29509         0.246447     -0.209858     -0.071405
Cr	      6.00125      4.26997      6.28911         0.145518     -0.343587      0.115875
Co	      5.97192      6.42877      8.39482         0.298345     -0.205804      0.796758
Cu	      4.06760      8.59823      8.38105        -0.009438      0.032077      0.046578
Cu	      3.98356      4.28546      4.20478        -0.052105     -0.073605      0.103938
Cu	      4.00659      6.56752      6.27084        -0.006197     -0.106763     -0.175111
Cu	      7.93897      8.54982      8.42515         0.046579     -0.031390     -0.047196
Ni	      2.07159      4.20557      2.09076         0.030786     -0.027510     -0.185149
O	      2.18900      6.46421      6.31045        -0.448443     -0.013733      0.038946
O	      4.05579      8.76397      6.00945         0.078688      0.194295     -0.069253
O	      4.06898      6.68523      8.24159        -0.017100     -0.082115     -0.219030
O	      5.97534      8.35711      8.42795         0.127767     -0.138285      0.010081
O	      2.18371      2.21113      2.08862        -0.508212     -0.258551      0.011639
O	      4.10119      4.07967      2.19501         0.152534      0.324031     -0.150997
O	      3.92204      2.20787      4.52152        -0.029740     -0.098772     -0.012648
O	      5.90522      4.27974      4.37935         0.016136      0.021912     -0.180091
O	      5.91737      2.22579      6.39994        -0.046517      0.093811     -0.006803
O	      7.97310      4.41544      6.32595        -0.015954      0.062109     -0.232470
O	      1.97119      4.31005      4.07830        -0.088525      0.094512      0.320500
O	      4.03015      6.59363      4.34185         0.052653      0.230676     -0.141433
O	      4.00074      4.09305      6.43860        -0.156138      0.049230      0.104041
O	      5.96070      6.29430      6.44115        -0.017871      0.165476      0.205400
O	      5.91981      4.44443      8.39768         0.019053      0.005249     -0.019250
O	      7.87428      6.28952      8.24396         0.139517      0.232295      0.017761
O	      5.98560      6.31926     10.30515        -0.063983      0.198576     -0.591444
O	      8.09996      8.62033     10.33396         0.153136      0.074085      0.071587
