# total energy = -201.66841216 eV
 
CRYSTAL
PRIMVEC
0.044569 6.088537 6.350289 
6.211094 0.010034 6.383849 
4.160628 4.100843 -0.012833 
PRIMCOORD
36 1
Li	      0.06870      6.05201      6.29585        -0.018827     -0.047282     -0.058711
Li	      6.27510      8.16433     10.58247         0.002012      0.062469     -0.089338
Li	      4.12797      4.08351      4.30442        -0.008209     -0.024176      0.048940
Li	      6.18868      4.08045      6.43636        -0.013907      0.081382      0.111543
Li	      0.07136      4.03694      4.22093        -0.035357     -0.005073      0.004390
Li	      2.08533      6.06919      4.39207        -0.056004     -0.058177     -0.074374
Li	      2.11231      4.09270      6.34424         0.013046     -0.045693     -0.036589
Li	      4.10780      6.10340      6.22639         0.046529     -0.065518     -0.003733
Li	      4.15837      4.11606      8.43569         0.064535     -0.030839      0.007979
Mn	      4.22527      6.09994     10.61337         0.070007     -0.074274     -0.156364
Cr	      8.30642      8.12550     12.64595         0.585827      0.010486     -0.221631
Cr	      6.31143      6.16157      8.52497         0.020535      0.048054     -0.055382
Co	      4.16666      2.08998      6.40366        -0.400432      0.294977      0.133344
Cu	      2.08834      6.06215      8.37262        -0.022200     -0.106229      0.048591
Cu	      4.20293      8.15205      8.32706         0.049409     -0.053762      0.239090
Cu	      6.22593      2.06541      8.52521        -0.025762     -0.130571      0.184548
Cu	      6.21746      6.12596      4.27626         0.023975      0.097728      0.224558
Cu	      2.09520      4.08722      2.24900        -0.061416      0.198447      0.052448
O	      8.32877      6.13605      8.32932        -0.013670      0.097600     -0.077123
O	      2.09639      6.13817      6.38069        -0.021894      0.109666      0.042031
O	      4.08726      8.10466      6.37443        -0.489032      0.003439     -0.288230
O	      6.13945      8.21229      8.51333         0.079194     -0.110230     -0.018724
O	      2.12717      1.96846      1.89852        -0.070666     -0.015542      0.165390
O	      3.93934      3.98525      2.16530         0.401984      0.225254     -0.136454
O	      4.00902      1.98419      4.44976         0.126677      0.006291      0.043119
O	      6.35991      4.24084      4.07295         0.006679     -0.106864     -0.135240
O	      6.12899      2.03415      6.51279         0.089036     -0.032915      0.059724
O	      8.29115      4.13989      6.16591         0.004444     -0.036635      0.053189
O	      2.07914      3.88813      4.24693         0.008330      0.046571      0.021228
O	      4.34035      6.08353      4.09239        -0.082369      0.003236     -0.222879
O	      4.20011      3.90761      6.40860         0.036019     -0.245855     -0.065980
O	      6.46194      6.12830      6.54430         0.309203     -0.013017      0.037598
O	      6.45162      4.16864      8.52845        -0.393972     -0.152766     -0.038175
O	      4.32810      6.15506      8.64257        -0.077305     -0.025137      0.033276
O	      6.14139      6.15862     10.53534        -0.033636      0.041248      0.066478
O	      8.30827      8.28986     10.65728        -0.112785      0.053706      0.101461
