# total energy = -200.83714380 eV
 
CRYSTAL
PRIMVEC
-0.029387 6.194879 6.095562 
6.213926 -0.015517 6.081875 
4.145897 4.124004 -0.013553 
PRIMCOORD
36 1
Li	      0.04574      6.14003      6.06083         0.013293     -0.017857      0.027979
Li	      2.10065      8.17624      6.06608         0.073267     -0.039415      0.016229
Li	      6.17992      8.26314     10.09760        -0.002641      0.002158     -0.005050
Li	      6.20126      6.16231      4.08555        -0.004516     -0.003175      0.024597
Li	      4.15607      4.13257      4.08215         0.004896      0.014451      0.008340
Li	      2.02290      4.16914      6.10508        -0.001150      0.005009      0.009561
Li	      4.10147      6.19722      6.10026        -0.015576      0.002923      0.021626
Li	      4.04609      4.19935      8.10888        -0.041091      0.032459     -0.047749
Li	      6.09608      6.27120      8.10738        -0.041394      0.071252     -0.036540
Mn	      4.14638      6.17313      2.01572        -0.105329     -0.054638     -0.016621
Cr	      2.07055      4.09852      2.02702         0.038991      0.050127     -0.041893
Cr	      4.05553      2.12790      6.02451        -0.073330      0.087730     -0.002838
Co	      4.14559      6.16921     10.15525         0.069118     -0.043828     -0.018924
Ni	      2.08585      6.14585      8.09909        -0.027065      0.069340      0.056526
Ni	      4.17025      8.22062      8.09277        -0.061369      0.074828      0.008756
Ni	      6.18857      4.11504      6.00839         0.009691     -0.027506     -0.020793
Ni	      4.10956      8.27507      4.10886        -0.046461      0.021365     -0.038859
Ni	      8.21713      6.22418     10.23101        -0.049585      0.052319     -0.034161
O	      1.94956      2.08048      2.01987        -0.080838      0.020901      0.013769
O	      4.08657      4.21662      2.07956        -0.077590      0.122773      0.059673
O	      4.15214      1.92159      4.07883        -0.004176      0.005631      0.111168
O	      6.40473      4.08568      4.00910         0.006501      0.003654     -0.088780
O	      6.07926      2.05474      6.18532        -0.034621     -0.157811      0.046114
O	      8.27063      4.23267      6.05511         0.092401      0.021292     -0.018618
O	      1.89892      4.19174      3.97373         0.081805     -0.096385      0.031381
O	      4.06780      6.31614      3.94653         0.096246     -0.106197     -0.051208
O	      4.17788      3.97835      6.01995        -0.140096     -0.152891     -0.017905
O	      6.35643      6.11265      6.10797         0.177730      0.148174     -0.012028
O	      6.28504      3.96886      8.07182        -0.032709     -0.065126      0.011902
O	      8.39061      6.11199      8.07744         0.059669      0.003987     -0.101371
O	      2.07169      6.18700      6.13891        -0.013032     -0.016345      0.058883
O	      4.13226      8.23154      6.10431         0.017334     -0.006278      0.045486
O	      4.09380      6.23022      8.25765         0.100886     -0.085198      0.004652
O	      6.12166      8.33700      8.11147         0.132883     -0.094352      0.011901
O	      6.12263      6.04846     10.12659        -0.070209      0.083109     -0.002940
O	      8.41180      8.32382     10.15263        -0.051931      0.073519     -0.012265
