# total energy = -204.82448619 eV
 
CRYSTAL
PRIMVEC
0.060842 6.102778 6.429025 
6.193269 0.016993 6.473680 
4.114660 4.083618 0.025807 
PRIMCOORD
36 1
Li	     10.21456      4.08597      6.53715         0.016976     -0.017756      0.011287
Li	      2.15501      2.07208      0.12944        -0.016551      0.019961      0.108835
Li	      4.04083      2.14875      2.04882        -0.026204      0.006192     -0.013012
Li	      8.17562      4.11469      4.48073        -0.015217     -0.013758     -0.006140
Li	      2.12882      4.00006      2.16035         0.015374      0.018629      0.041150
Li	      2.13785      2.01133      4.29407        -0.018401      0.000725      0.010506
Li	      6.25490      4.11880      6.45025        -0.007706     -0.002313     -0.062551
Li	      0.10665      4.08293      4.34561         0.013826     -0.033606      0.046030
Li	      2.04019      4.06680      6.34589        -0.025935     -0.000630     -0.027729
Mn	      4.20751      4.04080      8.53425        -0.132802      0.147073      0.030992
Cr	      2.06564      0.06203      2.18671         0.152611     -0.001163     -0.042374
Cr	      6.22664      8.13651     10.75294        -0.009881      0.020883     -0.014494
Co	      8.24276      6.06553      6.40253        -0.008056     -0.178871     -0.018603
Co	      4.14318      6.17346      6.48027        -0.226899      0.136818     -0.073560
Cu	      0.07973      2.03446      2.09038        -0.108501      0.153530      0.098062
Cu	      2.07902      6.09313      4.35124         0.061555      0.136984     -0.026419
Ni	      4.10461      4.07581      4.29281         0.031548     -0.007156      0.064881
Ni	      6.25710      6.07466      8.58287        -0.029283      0.017505     -0.013698
O	      4.16915      7.98249      6.49511         0.041887     -0.049203      0.078496
O	      6.39268      6.12917     10.65814        -0.052148     -0.012317     -0.022529
O	      2.01868      2.02675      2.21691         0.071716     -0.025389      0.021642
O	      4.20723      4.15888      2.20654        -0.051918     -0.148520     -0.056963
O	      4.15854      2.04429      4.46070        -0.009786     -0.133692      0.053787
O	      6.15378      4.02336      4.22075         0.118062     -0.032851     -0.000528
O	      5.98522      2.05045      6.28304        -0.052549      0.029707      0.026033
O	      8.24636      4.25076      6.45390        -0.031694      0.177745      0.012832
O	      2.11598      4.25819      4.29164        -0.110891     -0.126527      0.039647
O	      3.97513      6.09966      4.62321         0.124774      0.102170     -0.326148
O	      4.15791      4.11392      6.58283         0.012493     -0.028124      0.044529
O	      6.26454      6.14074      6.53107         0.135336     -0.014011     -0.057239
O	      6.07588      4.01731      8.60707         0.080963     -0.026429     -0.070666
O	      8.31550      6.20246      8.33885         0.004409     -0.088729     -0.107544
O	      2.26996      6.13839      6.65366         0.068337      0.014829      0.157875
O	      4.19480      6.00196      8.49718        -0.067726     -0.131430      0.163343
O	      6.34932      8.17498      8.71132         0.039701      0.062694     -0.026463
O	      8.24639      8.02445     10.57084         0.012579      0.027029     -0.043266
