# total energy = -203.84626383 eV
 
CRYSTAL
PRIMVEC
-0.000189 6.286295 6.223572 
6.147917 0.009328 6.214325 
4.100604 4.186635 0.004185 
PRIMCOORD
36 1
Li	      0.05226      6.24722      6.18339        -0.042445     -0.020290     -0.024372
Li	     10.14085      6.33497      8.31269         0.047768      0.044876     -0.030646
Li	      6.11066      6.27607      4.26927         0.009131      0.031399     -0.021725
Li	      8.18525      6.30792      6.28056         0.029236      0.018843      0.005489
Li	      4.10065      8.36706      4.20821         0.101704     -0.016110      0.013166
Li	      6.04984      8.30101      6.22282        -0.027207     -0.029360      0.025282
Li	      4.15650      6.30001      6.13991        -0.009461     -0.016754     -0.001782
Li	      4.12382      4.18558      8.25864         0.010273     -0.018089     -0.018234
Li	      6.18162      6.24065      8.21872        -0.006420     -0.006368     -0.003771
Mn	      4.16876      6.35027     10.35399        -0.080946     -0.073525      0.047531
Cr	      8.22853      8.42069     12.41093        -0.285506      0.208933     -0.030690
Cr	      2.03137      6.30416      8.25826        -0.096954      0.321147      0.148771
Co	      1.98088      4.19112      2.18517         0.219999     -0.223054     -0.405922
Co	      6.12198      4.24646      6.23365         0.106685      0.103589      0.124382
Cu	      4.13810      8.39145      8.25524        -0.102699      0.034042     -0.108340
Cu	      4.03112      4.22335      4.21965         0.165444     -0.048505      0.136225
Cu	      2.03944      6.22395      4.15786        -0.131469      0.065076      0.061396
Ni	      6.18087      8.38197     10.35439         0.032158      0.097190     -0.087921
O	      8.15782      6.05689      8.40626         0.077057     -0.188792      0.464214
O	      4.03963      8.40112      6.28964         0.378179     -0.004874     -0.008848
O	      6.12787      8.53179      8.26989         0.148384     -0.204290     -0.093536
O	      2.09966      2.14928      1.97672        -0.110639      0.105434      0.228502
O	      4.07843      4.11729      2.20215        -0.323393     -0.038516     -0.023732
O	      4.15041      2.02031      4.07248        -0.108945      0.046383     -0.098393
O	      6.27135      4.21331      4.12322        -0.342729      0.044213      0.046716
O	      6.22807      2.30624      6.16335        -0.103388      0.053369      0.134340
O	      8.10469      4.17441      6.11843         0.037600      0.147456      0.536055
O	      2.07823      4.03099      4.16802        -0.569175      0.136841     -0.934637
O	      3.97690      6.17527      4.14716        -0.210908      0.265924     -0.060530
O	      4.28314      4.15753      6.15111         0.081287     -0.073839      0.322251
O	      6.15638      6.06283      6.22474         0.093398     -0.095729      0.036169
O	      6.24662      4.17283      8.10997         0.140213     -0.057390      0.101036
O	      2.01114      6.44160      6.26946         0.014795     -0.230157     -0.211023
O	      4.03000      6.37924      8.41973         0.099209     -0.162702     -0.009858
O	      6.07283      6.34655     10.39021         0.590447     -0.183304     -0.136892
O	      8.23608      8.59213     10.39007         0.169317     -0.033067     -0.120674
