# total energy = -204.49985355 eV
 
CRYSTAL
PRIMVEC
0.023581 6.224049 5.970217 
6.417705 0.023727 5.970966 
4.291327 4.162217 0.004780 
PRIMCOORD
36 1
Li	      6.42547      0.16517      6.00026        -0.067834      0.021570      0.003171
Li	      8.48799      2.09026      5.96434        -0.002296      0.090639      0.020175
Li	      6.40135      2.18435      7.84245        -0.011302      0.006913     -0.032262
Li	      6.43685      6.19382      3.99584        -0.040015     -0.065858      0.026768
Li	      4.36266      2.11989      6.02760         0.035135     -0.029976      0.016202
Li	      6.38692      4.13192      6.04608         0.029992      0.029641     -0.042609
Li	      6.42794      8.27361      6.07617         0.024739     -0.051134      0.003455
Li	      4.42218      4.08506      7.92151         0.109085     -0.038236     -0.062820
Li	      6.53691      6.17938      7.93090         0.069742      0.044500     -0.037141
Mn	      8.61940      6.33498      9.94649        -0.024351     -0.094064     -0.244095
Cr	      4.21186      4.08565      4.00075         0.025062     -0.037581      0.194144
Cr	      4.42205      6.20815      6.02590         0.109811     -0.063011     -0.002301
Co	      4.22251      2.07791      1.99888        -0.009091     -0.034395      0.011282
Co	      8.56729      4.17929      4.04908        -0.004684      0.048396      0.008897
Cu	      2.07963      0.03899      1.92086         0.039623      0.141523     -0.019156
Cu	      6.40385      2.13186      4.00040         0.059123     -0.066073      0.070290
Cu	      8.52160      4.14491      7.86815         0.058600     -0.014120     -0.151732
Cu	      0.08985      4.19600      3.97986         0.040842      0.095933      0.091530
O	      8.61754      6.23258      8.06249         0.019066      0.191958      0.093564
O	      6.18790      8.44701      8.07707        -0.069189     -0.021788     -0.166766
O	      6.64806      6.48383      9.97938         0.059388     -0.205816      0.002460
O	      8.83107      8.28826      9.89920        -0.000763     -0.061311      0.029492
O	      2.28891      2.00971      1.96272        -0.105221     -0.184823     -0.052073
O	      4.07925      3.99392      2.00078         0.056240     -0.064956     -0.114165
O	      4.09125      2.08891      3.91485        -0.097069     -0.014528     -0.019477
O	      6.29297      4.04314      3.90204        -0.127810      0.231650     -0.066311
O	      6.43149      2.13724      5.84203         0.027428      0.012501      0.146665
O	      8.56459      4.19294      5.82838         0.078273      0.030989      0.037271
O	      2.15584      4.33140      3.96412         0.005795      0.113253      0.138534
O	      4.17024      6.07465      4.03443         0.060340      0.033312      0.021747
O	      4.24960      4.28122      5.98112        -0.019070      0.055591     -0.021032
O	      6.22259      6.22075      5.95687        -0.126273     -0.012325      0.026866
O	      6.59979      4.15536      8.02761        -0.090550     -0.038030     -0.040693
O	      2.33370      6.22925      5.94244         0.000968      0.023013      0.156034
O	      4.33037      8.12395      6.00702        -0.017972     -0.042306     -0.004841
O	      4.39325      6.35654      8.07338        -0.095762     -0.031054     -0.021076
