# total energy = -92.53514349 eV
 
CRYSTAL
PRIMVEC
4.056113 0.000049 -0.000345 
-2.027780 4.070234 -6.246142 
-2.028029 4.131707 2.122902 
PRIMCOORD
16 1
Li	      2.03144      2.14707     -0.01796        -0.001625      0.015421     -0.001613
Li	      0.00347      4.14068     -0.00862         0.000387      0.001298     -0.006805
Li	      2.03182      4.08547     -2.03373        -0.000361     -0.017391      0.026072
Li	      0.00399      4.04500     -4.11245        -0.000773     -0.013974      0.001598
Mn	      0.00354      0.03288     -0.01074         0.001851      0.022950     -0.054052
Mn	      0.00353      2.09604     -2.06775         0.000370     -0.035309      0.091444
Ni	      0.00411      6.10543     -2.03552        -0.002627     -0.013750      0.005150
Ni	     -2.02408      6.10438     -4.14930         0.000367      0.020099     -0.027183
O	     -2.02437      6.11738     -1.91215         0.004484      0.019538      0.011342
O	     -2.02445      4.25840      0.19938        -0.001375      0.000545      0.001038
O	      0.00400      6.28105     -4.09577        -0.002293     -0.014948     -0.079520
O	     -2.02411      8.09746     -4.12988        -0.002446      0.125973      0.003877
O	     -2.02415      4.12931     -4.34642         0.002816     -0.078251      0.000566
O	      2.03162      2.06058     -2.12152         0.001603      0.027047      0.113831
O	      0.00371      3.98503     -2.05491        -0.001251     -0.060452     -0.021411
O	      0.00328      1.95643     -0.07663         0.000871      0.001201     -0.064333
