# total energy = -91.15981534 eV
 
CRYSTAL
PRIMVEC
2.105369 4.348516 2.105181 
2.146087 -4.389682 2.145830 
4.271360 -0.000063 -4.270942 
PRIMCOORD
16 1
Li	      2.34326     -0.17199     -2.17137         0.412972      0.354965     -0.144211
Li	      2.35221     -0.02131      2.07019        -0.582244      0.062109      0.297317
Li	      2.25872     -2.27810     -0.02608         0.339797      0.002221      0.027252
Li	      4.50312     -2.10730     -2.10515        -0.053196     -0.220337      0.009096
Mn	      0.23692     -0.17438     -0.06411        -1.481335      4.928639      2.873503
Mn	      2.21787      2.26210     -0.02656         0.475133     -2.311759     -0.784497
Ni	      4.41407      2.26228     -2.22314        -0.656865     -0.909673      0.917069
Ni	      4.45180     -0.02032     -0.02890         0.112572      0.275146     -0.663576
O	      6.75077     -0.03418     -0.02856        -0.536870     -0.456644     -0.396035
O	      4.28995      2.13931     -0.01550        -1.014577     -0.908533      0.010280
O	      4.45083     -0.00668     -2.32794         0.334631     -0.153010      0.486146
O	      4.42505     -0.20712      2.28353        -0.171342     -0.238424     -1.433388
O	      4.43808     -2.18045      0.13243        -0.200545      1.376588      0.909989
O	      2.20982      2.42030      2.09594         0.649027     -2.609829     -1.109272
O	      2.13841      0.16616     -0.00221         1.172756      0.399373      0.028904
O	      2.32671     -2.46021      2.21253         1.200087      0.409170     -1.028579
