# total energy = -208.04415421 eV
 
CRYSTAL
PRIMVEC
0.061544 6.239236 6.172599 
6.159683 0.071006 6.163829 
4.158533 4.206274 -0.004987 
PRIMCOORD
36 1
Li	      8.19742      2.21928      6.20420        -0.016135      0.036947      0.070292
Li	      2.14179      0.09804      2.07090         0.016140      0.106675      0.029850
Li	      8.22633      4.25423      4.14453        -0.019657      0.056882     -0.020571
Li	      6.17617      2.18188      8.14445        -0.019314      0.000995      0.013718
Li	      6.22600      6.19901      4.13888        -0.026135     -0.091653     -0.008041
Li	      8.31651      6.30332      6.18927        -0.002369      0.020959      0.032996
Li	      6.25103      4.20176      6.14991        -0.026565     -0.003450     -0.006609
Li	      4.17217      6.27078      6.18670        -0.002684     -0.088212     -0.016508
Li	      4.19594      4.23242      8.20381         0.047334     -0.015495     -0.086146
Mn	      2.11274      4.18448      6.16356         0.487134     -0.161991     -0.134862
Cr	      6.21678      2.21922      4.17554        -0.125089      0.067546     -0.360877
Cr	      6.20720      6.27591      8.17445         0.009015      0.240251     -0.025398
Co	      2.08949      4.14099      2.04199        -0.011368      0.101214      0.100179
Co	      4.15523      4.24006      4.13153         0.203637     -0.004822      0.164921
Co	      8.27984      6.31536     10.25337         0.087757     -0.005808     -0.103531
Cu	      6.13598      0.12589      6.18754        -0.096018      0.136103      0.132103
Cu	      4.06278      2.08712      2.06944         0.168795     -0.022640     -0.001155
Cu	     10.27767      8.38033     10.26361         0.067825     -0.073096     -0.054992
O	      6.29872      4.27950      8.28865         0.085334     -0.168773     -0.022984
O	      4.31416      8.43945      6.08184        -0.262927     -0.007732     -0.068731
O	      4.23533      6.36033      8.25403        -0.017314     -0.060936     -0.039649
O	      2.13647      2.24659      2.08518        -0.129963      0.036979      0.016711
O	      4.03891      4.12889      2.22958        -0.143891     -0.041489     -0.294786
O	      4.24466      2.27835      4.07324        -0.172775     -0.018565      0.023058
O	      6.08028      4.18880      4.11964         0.177669     -0.046887     -0.006320
O	      6.20001      2.10737      6.08030        -0.004348     -0.193331      0.232297
O	      8.33448      4.27454      6.31252         0.146860     -0.027263      0.012801
O	      2.15303      4.27545      4.16586        -0.291174      0.142460      0.002548
O	      4.03547      6.09246      4.10199        -0.131832      0.113330     -0.037577
O	      4.03606      4.19061      6.05261        -0.254766      0.005526      0.215708
O	      6.23596      6.47188      6.19862        -0.036149      0.124255     -0.153967
O	      8.22909      6.18005      8.32050         0.010191     -0.081780      0.129105
O	      2.05326      6.14590      6.05950        -0.074601     -0.023294     -0.011669
O	      6.21841      8.34656      8.09031         0.026932      0.017090      0.081358
O	      6.33444      6.43315     10.15589         0.107620      0.021479      0.057631
O	      8.27133      8.24848     10.21434         0.222831     -0.091474      0.139096
