# total energy = -197.82036111 eV
 
CRYSTAL
PRIMVEC
-0.004309 6.235964 6.260574 
6.196098 0.038226 6.217956 
4.130935 4.129090 0.025231 
PRIMCOORD
36 1
Li	      4.07102      4.07977      0.03852        -0.015647     -0.022994      0.057559
Li	      8.30493      2.17079      6.23402         0.011513      0.036539     -0.040186
Li	      2.10435      6.28800      8.32640        -0.028869      0.030056     -0.020747
Li	      4.07371      2.03665      2.10074        -0.014281      0.004744      0.009582
Li	      8.24563      4.17236      4.18759        -0.011295     -0.030175      0.011437
Li	      8.27304      4.18539      8.19214         0.049460      0.042631     -0.093618
Li	      2.15032      2.04139      4.15602         0.049171      0.006767     -0.025745
Li	      8.24723      6.17239      6.21153         0.017423      0.003119     -0.026444
Li	      4.12597      6.27070      6.34424        -0.051995      0.022188      0.032889
Mn	      6.16667      8.29163      6.28934        -0.038346      0.072406     -0.048820
Cr	      0.11572      2.00472      2.01511        -0.171874     -0.121291     -0.052792
Cr	      2.07331      6.22280      4.21158         0.048605     -0.043634     -0.093095
Cu	      6.14786      6.24654      8.30518         0.133820     -0.037076      0.049129
Ni	      6.15991      2.09913      4.21387         0.056764     -0.028983      0.025402
Ni	      4.15263      4.13622      4.17412        -0.114763      0.124651     -0.094773
Ni	      6.23317      4.20453      6.22637        -0.038838     -0.055009      0.005656
Ni	      4.10566      8.29378      4.22996         0.041521     -0.101583     -0.001883
Ni	      4.11845      4.22058      8.30484        -0.021382     -0.061726      0.002370
O	      4.19085      6.18889      8.35750        -0.111324      0.163875      0.039734
O	      1.87281      2.11856      2.09868         0.237835      0.004882      0.016056
O	      4.09129      4.30924      2.16566         0.062681     -0.093059     -0.089727
O	      4.18010      2.22809      4.12318        -0.116204     -0.145277      0.018934
O	      6.11612      4.11587      4.25281         0.134594      0.130488     -0.119519
O	      6.17864      2.12749      6.34383         0.001286     -0.055611     -0.026670
O	      8.17656      4.16924      6.21532         0.105162      0.019973     -0.064748
O	      2.07766      4.19328      4.31808        -0.016575     -0.027996      0.064682
O	      4.06716      6.17947      4.06814         0.141513      0.001000      0.082849
O	      4.05415      4.17759      6.21761        -0.059681     -0.006936      0.027977
O	      6.19985      6.31197      6.35208        -0.023983      0.083110     -0.041238
O	      6.17627      4.14824      8.32457         0.109250      0.051867     -0.001920
O	      8.38507      6.30857      8.42452        -0.134810     -0.037684     -0.040635
O	      2.06091      6.08234      6.18911        -0.042516     -0.085484      0.151207
O	      4.26371      8.29222      6.22075         0.040230     -0.023223      0.140858
O	      6.20762      8.23398      8.23920        -0.119987      0.108765     -0.017339
O	      6.27489      6.26085     10.28617        -0.113222      0.000786      0.076034
O	      8.24375      8.23018     10.38243         0.004763      0.069897      0.087543
