# total energy = -198.35129934 eV
 
CRYSTAL
PRIMVEC
0.024969 6.168483 6.142711 
6.228774 0.016485 6.151521 
4.163096 4.128713 0.000526 
PRIMCOORD
36 1
Li	      2.09913      2.10210      0.13670         0.002812      0.030124      0.102197
Li	      2.12463      6.17463      8.13903         0.001729     -0.003836     -0.018868
Li	      4.15372      8.21189      8.13932         0.020188     -0.005044      0.020535
Li	      4.19582      6.17625     10.20316        -0.000233      0.016028     -0.042910
Li	      6.23198      2.07761      8.18065         0.001916     -0.003604     -0.022835
Li	      8.33997      4.15162      8.12919         0.054182      0.022860      0.007887
Li	      6.29954      4.15543      6.23726         0.033021      0.031581      0.009355
Li	      4.17287      6.20521      6.21761         0.020045     -0.022858     -0.013015
Li	      6.19921      6.14614      8.14564        -0.043673      0.008523     -0.076745
Mn	      4.19830      4.17488      8.17546        -0.006695      0.232260     -0.260049
Cr	      6.25009      8.24008     10.22130        -0.152086      0.061563      0.043474
Cr	      6.21506      6.09026      4.01617         0.113323     -0.124081      0.372432
Cu	      8.33794      6.14855      6.19431        -0.010357     -0.076427      0.003166
Cu	      6.21850      8.25774      6.18430        -0.031690     -0.042042      0.161256
Ni	      4.16088      4.13513      0.04358        -0.042059     -0.004179      0.041343
Ni	      4.14955      4.13400      4.02435         0.033958     -0.039550     -0.064409
Ni	      6.21366      4.15015     10.21472        -0.044789     -0.006758      0.006344
Ni	      2.11373      6.15151      4.07755         0.034968      0.078437     -0.170425
O	      1.93059      6.12001      6.10013         0.208161      0.150702      0.104134
O	      4.22914      8.40849      6.10884        -0.129079     -0.158991      0.070623
O	      2.11343      2.09075      2.24579        -0.045074      0.005486     -0.112214
O	      4.17520      4.13295      1.95297         0.011978      0.025191      0.175210
O	      4.16995      2.10381      4.13986        -0.053347     -0.127684     -0.163433
O	      6.17976      4.15941      4.16960         0.137930      0.084355     -0.033929
O	      6.19886      1.93611      6.08046         0.165072      0.185617     -0.028369
O	      8.50013      4.18849      6.16965        -0.183878     -0.151390     -0.029440
O	      2.08529      4.04239      4.17057        -0.012474     -0.100620     -0.139216
O	      4.24577      6.16397      4.16263         0.051786      0.052697     -0.031857
O	      4.08338      4.05317      6.21224         0.082707      0.077140      0.113435
O	      6.35003      6.25396      6.01267        -0.120692     -0.031248     -0.157221
O	      6.09471      4.14466      8.20259        -0.042623     -0.069575     -0.080275
O	      8.31199      6.32011      8.17990         0.017739     -0.049028      0.247956
O	      4.17893      6.04276      8.14840        -0.043318     -0.130188      0.072530
O	      6.36924      8.23760      8.21151         0.053226     -0.004922      0.111279
O	      6.28430      6.23927     10.37246        -0.039753      0.063771     -0.180129
O	      8.27123      8.22926     10.12748        -0.042921      0.025690     -0.037817
