# total energy = -198.06397982 eV
 
CRYSTAL
PRIMVEC
-0.003564 6.162146 6.172662 
6.257069 -0.021243 6.190316 
4.158899 4.107313 -0.001681 
PRIMCOORD
36 1
Li	      6.24932      6.14619     12.34943         0.002887     -0.026837     -0.007281
Li	      6.18978      4.07304      2.07336         0.024007     -0.107202     -0.046342
Li	      4.22577      8.21076      8.22639         0.093879     -0.049116      0.003064
Li	      6.29086      8.16575     10.23687         0.013023     -0.048046     -0.068328
Li	      8.32569      4.13461      8.25183        -0.001241      0.048073      0.013946
Li	      6.31075      4.02979      6.23801         0.036465      0.019299      0.043956
Li	      6.19079      4.15411     10.26760        -0.009754      0.020131      0.006062
Li	      8.25895      6.18039     10.26866        -0.102383      0.028933      0.015507
Li	      8.35897      8.17284      8.30374        -0.003800      0.023224     -0.038486
Mn	      6.20133      8.23013      6.20144         0.059624      0.004775      0.325482
Cr	      2.07799      2.03725      4.04249         0.074810     -0.027065     -0.129331
Cr	      4.13358      6.14307      6.22525        -0.095958     -0.000437     -0.022224
Cu	      8.28343      2.09182      6.20258        -0.079908      0.175513      0.219704
Cu	      4.20657      6.10648     10.26250        -0.083199      0.079429     -0.234791
Cu	     10.36432      6.16868      8.25936         0.022520      0.264574      0.124100
Ni	      4.18273      4.08968      4.07330         0.078255     -0.131220     -0.020403
Ni	      4.24075      2.00777      6.20123        -0.133840      0.222575     -0.067617
Ni	      6.27862      6.09873      8.28905         0.137403      0.113136     -0.011417
O	      8.37499      6.14756      8.17503         0.003457     -0.041169      0.148236
O	      6.18046      6.16177     10.23488         0.126018      0.012436      0.230255
O	      8.28680      8.25926     10.46393         0.012531     -0.093093     -0.145670
O	      1.97105      2.09710      2.10496         0.105348      0.002975      0.132733
O	      4.15297      4.21055      2.14508        -0.060802      0.248375     -0.301175
O	      4.07782      2.02773      4.15397        -0.052775     -0.039310     -0.054975
O	      6.26036      4.24592      4.12825         0.129117      0.115565      0.070776
O	      6.26360      2.03665      6.31646         0.185484      0.008781     -0.375833
O	      8.35243      4.13934      6.05609        -0.029755     -0.406917      0.175358
O	      2.12807      3.97922      4.23870        -0.141798     -0.080391      0.031202
O	      4.26628      6.13415      4.16108         0.041629      0.092695      0.122006
O	      4.02739      4.10956      6.08619        -0.168868      0.010303      0.235887
O	      6.19588      6.24016      6.10545         0.003241      0.060136     -0.111482
O	      6.25340      4.10787      8.24369        -0.020155     -0.796188     -0.006026
O	      2.16038      6.02617      6.17958         0.040095      0.055664     -0.031770
O	      4.25696      8.12958      6.20165        -0.015423     -0.028635      0.016693
O	      4.26360      6.11115      8.18581        -0.200926     -0.004053      0.076984
O	      6.26883      8.10781      8.09390         0.010788      0.273089     -0.318798
