# total energy = -197.71177449 eV
 
CRYSTAL
PRIMVEC
-0.011073 6.235749 6.186330 
6.124733 0.004332 6.170650 
4.102178 4.165574 -0.015834 
PRIMCOORD
36 1
Li	      2.08025      8.31608      6.15422         0.015927      0.011108      0.007562
Li	      4.04471      2.08936      2.08743        -0.006377      0.025880      0.048949
Li	      4.06781      0.01757      4.10407        -0.049026      0.099801     -0.009824
Li	      6.13691      2.09817      4.11607        -0.031689      0.041134      0.024140
Li	      4.15730      6.20383      2.09804         0.064762     -0.081960     -0.000197
Li	      2.06147      4.13031      2.08802         0.050634     -0.040572     -0.050557
Li	      4.10759      4.16593      4.08876         0.060238     -0.002500     -0.027035
Li	     10.16343      8.28143     10.27714        -0.033229     -0.033676     -0.006489
Li	      4.03937      6.27958      6.12973        -0.053472      0.030946     -0.025501
Mn	      6.08289      6.23058      8.29166        -0.138563      0.035968     -0.165935
Cr	      6.13362      4.13284      6.12178        -0.010098     -0.001587     -0.127510
Cr	      6.06746      8.32940      6.11246        -0.083764     -0.008578      0.185313
Cu	     10.17836      4.17909      6.16496        -0.089245      0.127084      0.082163
Cu	      6.13084      4.22655      2.10015         0.027613     -0.094550     -0.029454
Cu	      4.10806      2.06532      6.13230        -0.154176      0.011657      0.048655
Cu	      2.12343      6.28666      4.09328         0.119810     -0.107803      0.193958
Ni	      2.01665      2.09332      4.04745         0.028720     -0.048297     -0.045196
Ni	      8.19667      8.34076      8.29903        -0.007270      0.010680      0.023430
O	      1.95443      6.14134      6.21486         0.214869      0.036485     -0.067295
O	      4.22871      8.40619      6.16165         0.050087     -0.208428     -0.025394
O	      6.19661      6.22836     10.17309         0.070005     -0.001224      0.098408
O	      8.18243      8.22411     10.29476         0.018679     -0.093024      0.144869
O	      2.05990      1.99656      2.05836         0.012078      0.136440     -0.149870
O	      4.19023      4.15708      1.96871        -0.065001     -0.011700     -0.059474
O	      4.00149      2.10478      4.18835         0.174512     -0.018363      0.074944
O	      6.12774      4.20766      4.10363         0.028235     -0.141057      0.232359
O	      6.04135      2.12575      6.17940         0.185872      0.040169      0.026065
O	      8.18572      4.23725      6.16301        -0.127423     -0.045062     -0.042940
O	      2.07213      4.18363      4.28103         0.032813      0.226078     -0.055262
O	      4.09262      6.24275      4.12082        -0.311816      0.061614      0.019026
O	      4.05961      4.07484      6.22552        -0.049796      0.094286     -0.054471
O	      6.16371      6.25245      6.24265        -0.173703      0.021682      0.059490
O	      6.13553      4.31521      8.12045         0.120083      0.017927      0.085763
O	      8.05336      6.26852      8.25915         0.025784     -0.162347     -0.340004
O	      4.15214      6.20919      8.22123         0.114557      0.153167     -0.009865
O	      6.14123      8.23186      8.09034        -0.030632     -0.081379     -0.062820
