# total energy = -198.46345932 eV
 
CRYSTAL
PRIMVEC
0.004081 6.099663 6.318778 
6.308764 -0.041882 6.365815 
4.184118 4.076708 -0.006872 
PRIMCOORD
36 1
Li	      2.01477      0.08740      2.10723        -0.130955      0.125466      0.056223
Li	      4.08306      2.08827      2.15048        -0.164094      0.118407      0.069373
Li	      4.29009      6.07149      2.23484         0.148677     -0.095468      0.059839
Li	      2.15886      4.05225      2.12374         0.114862     -0.084108      0.110125
Li	      2.01442      2.05608      4.04815        -0.018142      0.061965     -0.128196
Li	      4.16440      4.05127      4.23025        -0.091433      0.048305     -0.091611
Li	      8.34936      6.10549      6.34494        -0.005544     -0.019620     -0.019824
Li	      2.19452      6.03669      4.20775         0.043502     -0.046462     -0.019081
Li	      4.20617      6.06393      6.20146        -0.019092      0.006934     -0.083557
Mn	      6.32230      6.06830      8.40235        -0.030044     -0.017489      0.178132
Cr	      4.23137      0.05512      4.26022        -0.000740      0.136193     -0.130993
Cr	      4.21385      3.99604      8.40315        -0.088518      0.008546      0.056038
Cu	      6.27354      4.05324      6.27753        -0.079922      0.046687      0.020781
Cu	      2.06788      4.07862      6.29980         0.035545     -0.036618      0.061542
Cu	      4.22426      4.10164      0.16662        -0.087559      0.209092     -0.002825
Cu	      6.29823      2.00235      4.26188         0.020114     -0.012119     -0.264563
Cu	      4.23099      8.08716      4.21973         0.363451      0.117957     -0.038390
Ni	      2.15778      8.08672      6.41219         0.049745      0.007091      0.068210
O	      1.96874      6.07870      6.36657         0.071630     -0.115928      0.052981
O	      4.22700      8.28049      6.46463         0.099608     -0.124864     -0.086448
O	      2.08690      2.05817      2.03989         0.030468     -0.028346      0.067763
O	      4.16292      4.11891      2.12499        -0.030240      0.043907      0.185470
O	      4.15166      1.84769      4.23094         0.062192     -0.064235      0.070599
O	      6.43656      3.97614      4.35093         0.096610      0.081546      0.053862
O	      6.40742      1.94404      6.20403        -0.195932     -0.139056      0.126614
O	      8.56183      3.96905      6.15141        -0.035828      0.176531      0.093160
O	      1.93081      4.03066      4.33163         0.053505      0.047996     -0.102885
O	      4.18211      6.23612      4.22322        -0.079200     -0.279907      0.005674
O	      4.05920      4.07006      6.41472         0.140890     -0.052379     -0.002785
O	      6.23761      6.14346      6.52269        -0.004467     -0.015847     -0.102217
O	      6.21659      4.14480      8.20511         0.018955     -0.078353      0.001085
O	      8.20469      6.10360      8.42586        -0.014772     -0.032855     -0.099118
O	      4.31732      5.99624      8.62534         0.082608     -0.000451     -0.073458
O	      6.38196      8.00548      8.55828         0.005670     -0.003010      0.010086
O	      6.26527      5.99930     10.40014        -0.036461      0.043436     -0.078620
O	      8.62442      8.16383     10.47474        -0.325088     -0.032945     -0.022988
