# total energy = -197.59533089 eV
 
CRYSTAL
PRIMVEC
0.019567 6.251908 6.020048 
6.287144 0.015656 6.024050 
4.195268 4.174343 0.006817 
PRIMCOORD
36 1
Li	      4.22276      4.17477      0.09725         0.030293     -0.032151      0.031560
Li	      2.10518      2.10773      0.05708         0.045973     -0.004336      0.017401
Li	      2.09530      6.28513      7.92513         0.014913     -0.019543     -0.128177
Li	      8.38277      4.16897      7.96452         0.005217      0.020750     -0.043241
Li	      8.39538      6.29272      6.11053        -0.007806      0.036429      0.033420
Li	      6.23801      4.18308      6.07889        -0.061995      0.021847      0.022475
Li	      6.30944      8.30805      6.05451         0.041694      0.016806      0.021075
Li	      4.22649      6.25634      6.09275        -0.029735     -0.029149      0.020571
Li	      4.23095      4.16822      7.91536        -0.028713      0.026166     -0.120945
Mn	      4.19747      4.15461      4.07256         0.054565     -0.049727      0.047283
Cr	      8.32720      4.16057      4.10613         0.148294     -0.076065     -0.151227
Cr	      2.08488      6.25306      4.07713        -0.056036     -0.045497      0.270222
Cu	      4.19568      8.35316      7.94497        -0.201653      0.146313     -0.198356
Cu	      6.29884      2.08656      4.07948         0.090742      0.125770      0.000512
Cu	      6.31142      2.12686      7.92680        -0.023603     -0.074325     -0.115436
Cu	      6.28698      6.26784      4.08401         0.141241     -0.092899      0.232859
Cu	      6.31420      6.24383      7.93643         0.245968     -0.212055     -0.209343
Cu	      4.21340      8.33019      4.07704        -0.045427      0.044899      0.209139
O	      8.34454      6.29775      8.15167        -0.116930      0.067490     -0.195682
O	      4.20255      8.35243      5.99928         0.047736     -0.040707     -0.112996
O	      4.31067      6.33649      8.12138        -0.167902     -0.098829      0.130175
O	      6.21449      8.25620      8.11574        -0.023039      0.009545      0.021836
O	      6.28294      6.23756      9.98260         0.024623      0.053540      0.320019
O	      2.11469      2.09498      2.13170         0.164399      0.026769     -0.138296
O	      4.21547      4.13341      2.11469         0.030352     -0.086913     -0.103996
O	      4.21180      2.03850      3.96975         0.045558      0.017929      0.336669
O	      6.42166      4.16512      3.98952        -0.196943     -0.142303      0.021703
O	      6.30826      2.09307      6.03045        -0.015104      0.062458      0.017829
O	      8.42568      4.19493      5.87261         0.047654      0.029306      0.029572
O	      2.14408      4.33662      4.01726        -0.175610     -0.095987     -0.037854
O	      4.07599      6.22007      3.89717         0.072297      0.097295      0.136816
O	      4.19633      4.18883      5.88903         0.059077      0.000168      0.082930
O	      6.31153      6.24291      5.98522        -0.024363      0.005678     -0.205029
O	      6.31261      4.19707      8.12780        -0.018726      0.132586     -0.196891
O	      2.10940      6.28274      5.85929         0.000876      0.116581     -0.025853
O	      8.38276      8.35792     10.02686        -0.117885      0.042162     -0.020745
