# total energy = -197.86062424 eV
 
CRYSTAL
PRIMVEC
-0.010420 6.263879 6.232421 
6.242129 0.007425 6.214500 
4.140542 4.143167 0.025845 
PRIMCOORD
36 1
Li	      4.18019      4.11601      0.09985         0.047681     -0.033248      0.079298
Li	      2.06708      2.06546      0.07335        -0.011211     -0.024073      0.050170
Li	      2.08898      6.32708      8.22160        -0.007799      0.068568     -0.052761
Li	      4.08858      8.34800      8.23153        -0.054161      0.012578     -0.056109
Li	      8.30868     10.34538     10.40338         0.013811     -0.060157     -0.020774
Li	      0.07468      2.04864      2.03877         0.109242     -0.088002     -0.023719
Li	      2.08377      4.09915      2.04928         0.053102     -0.084069     -0.012953
Li	      4.05123      6.31975      6.26615        -0.062696      0.030520      0.032635
Li	      8.29734      8.34642      8.37465         0.002574      0.061657      0.050038
Mn	      4.14667      4.18625      4.09692         0.009621     -0.044047      0.013762
Cr	      8.31983      6.17578      6.33289         0.056123      0.055769     -0.001208
Cr	      6.07884      6.26560      8.32397        -0.077896     -0.004832     -0.107755
Ni	      6.26598      8.34249     10.40298        -0.027430     -0.010269     -0.055972
Ni	      2.07502      2.08224      4.05402         0.029569     -0.016042      0.026566
Ni	      6.22016      4.15044      6.27488        -0.060332      0.016062      0.068591
Ni	     10.33685      8.32942     10.41487         0.015048      0.011913     -0.114914
Ni	      2.07399      6.27243      4.19453         0.027619     -0.063832     -0.097530
Ni	      6.18318      8.35441      6.28459         0.125754     -0.105208      0.101433
O	      2.10443      2.07476      2.11021        -0.026352      0.008462     -0.159951
O	      4.14492      4.12915      2.28130         0.025782      0.017094     -0.056608
O	      4.15554      2.22836      4.28475        -0.015507      0.039263     -0.102338
O	      6.07729      4.16812      4.23390        -0.005243      0.010897     -0.101632
O	      6.12014      2.12552      6.20535         0.117792     -0.104691      0.064321
O	      8.24463      4.36460      6.17588         0.100143     -0.141054     -0.006150
O	      2.16279      4.17394      4.20128         0.016327     -0.016238     -0.112443
O	      4.15057      6.13713      4.15342         0.010591     -0.021989     -0.031010
O	      4.11221      4.04757      6.12837        -0.053000      0.105239     -0.041142
O	      6.28882      6.27960      6.27279        -0.108146      0.081486     -0.067372
O	      6.25128      4.37035      8.32010         0.028504     -0.118240      0.038647
O	      8.19671      6.28734      8.16658         0.034771      0.010736      0.149173
O	      2.06096      6.11181      6.21148        -0.007991      0.115741      0.101488
O	      4.25648      8.33563      6.15530        -0.137805     -0.009198      0.112625
O	      4.30495      6.24141      8.31397        -0.077909      0.021666      0.039031
O	      6.25785      8.15076      8.33220        -0.014267      0.160599      0.042236
O	      6.27860      6.26383     10.23916        -0.081357     -0.007388      0.203973
O	      8.30744      8.25946     10.42777         0.005046      0.124330      0.048355
