# total energy = -205.01465125 eV
 
CRYSTAL
PRIMVEC
0.070040 6.086802 6.480215 
6.207437 0.026674 6.523101 
4.114616 4.062653 0.041374 
PRIMCOORD
36 1
Li	      2.19281      8.07212      6.39768        -0.039023      0.040647      0.049146
Li	      2.21232      5.96584      8.58193         0.033836     -0.007251     -0.044647
Li	      4.25608      8.11400      8.69475        -0.046905      0.032650      0.024293
Li	      6.24450      8.19248     10.70351        -0.084639      0.068209     -0.028188
Li	      2.07097      4.09917      2.37375         0.016251     -0.029303     -0.000880
Li	      2.17098      2.11814      4.31338        -0.001232     -0.127027     -0.029716
Li	      4.00615      3.97008      4.38913         0.048463      0.027765     -0.001402
Li	      2.06142      4.12223      6.45430         0.004851     -0.061349      0.020451
Li	      8.26574      8.14007      8.77771         0.013614      0.003507      0.007555
Mn	      6.21698      4.06648      6.49668         0.075910      0.060407      0.114721
Mn	      6.24461      6.18145      8.72385        -0.199390      0.029598     -0.101625
V	      0.22909      1.92948      2.18739         0.145501      0.164604     -0.051117
Co	      4.22692     10.05717      6.55809        -0.014713      0.032495      0.113281
Co	      4.14846      0.03552      4.36083        -0.418698      0.179081     -0.154250
Cu	      4.19883      8.10840      4.49541        -0.085012     -0.081664      0.034877
Cu	      4.08538      6.13823      6.56902         0.067951     -0.079741      0.031856
Ni	      4.12030      2.11389      6.48754         0.001669     -0.079147      0.009809
Ni	      8.28713      6.10634     10.87894         0.067309      0.046082     -0.088761
O	      4.15104      8.09092      6.59991        -0.004729      0.107129     -0.047955
O	      1.94074      2.00825      2.17686         0.053929      0.002016      0.003670
O	      4.11657      4.21595      2.14302        -0.030217     -0.147737     -0.035263
O	      4.14195      1.92425      4.43997         0.053345     -0.279538     -0.012846
O	      6.35390      4.06680      4.57735         0.289929      0.045395     -0.106190
O	      6.16799      2.11113      6.71911         0.060289     -0.004108     -0.051829
O	      8.23290      4.11409      6.35818        -0.048793     -0.119205     -0.084303
O	      2.00330      4.07245      4.35174         0.024845     -0.135559      0.037191
O	      4.07313      6.12429      3.99861         0.088582      0.012123      0.004174
O	      4.32382      4.15127      6.41574         0.015257      0.052716      0.001631
O	      6.15877      6.02064      6.73037         0.004371     -0.020607      0.054899
O	      6.23436      4.02204      8.44505        -0.010299      0.027790     -0.052909
O	      8.16527      6.10756      8.67689        -0.030116      0.022268      0.029372
O	      2.11622      6.10536      6.40095        -0.080888     -0.008929      0.104827
O	      4.29093      6.11339      8.93325         0.114706     -0.016119      0.218219
O	      6.26030      8.00550      8.67049         0.017822     -0.028236      0.057497
O	      6.20254      6.14279     10.68225        -0.179340      0.018774     -0.066083
O	      8.43856      8.26884     10.89295         0.075562      0.252266      0.040496
