# total energy = -90.62947917 eV
 
CRYSTAL
PRIMVEC
2.115491 4.369422 2.115302 
2.156404 -4.410786 2.156147 
4.291896 -0.000063 -4.291476 
PRIMCOORD
16 1
Li	      2.37621     -0.19486     -2.18193         0.451962      0.405260     -0.161218
Li	      2.39552     -0.02152      2.06951        -0.639400      0.067559      0.318550
Li	      2.28049     -2.30006     -0.02633         0.375506     -0.000246      0.026591
Li	      4.55669     -2.10660     -2.11528        -0.061092     -0.229631      0.007477
Mn	      0.27020     -0.19727     -0.07500        -1.572650      5.666719      3.178867
Mn	      2.23925      2.28390     -0.02682         0.498821     -2.540690     -0.894368
Ni	      4.45662      2.28408     -2.24457        -0.719400     -0.969948      0.998722
Ni	      4.49471     -0.02051     -0.02918         0.127072      0.295779     -0.735303
O	      6.81584     -0.03451     -0.02884        -0.610634     -0.521988     -0.436157
O	      4.33130      2.15993     -0.01566        -1.054791     -1.013018      0.028105
O	      4.49373     -0.00674     -2.35038         0.362290     -0.192074      0.563565
O	      4.46770     -0.20911      2.30554        -0.191360     -0.231301     -1.622491
O	      4.48086     -2.20146      0.13371        -0.196050      1.521777      0.953366
O	      2.23112      2.44362      2.11615         0.657356     -3.143530     -1.136961
O	      2.15902      0.16776     -0.00223         1.298615      0.379695      0.032162
O	      2.34913     -2.48392      2.23386         1.273755      0.505636     -1.120907
