# total energy = -202.74477464 eV
 
CRYSTAL
PRIMVEC
-0.015521 6.048957 6.470355 
6.254929 -0.032277 6.489659 
4.147296 4.022366 0.000952 
PRIMCOORD
36 1
Li	      2.12313      1.99336      0.19392        -0.056156     -0.031215      0.081360
Li	      4.08928      2.01282      2.17199        -0.037603      0.013856     -0.075666
Li	      4.28692      6.00800      2.31469         0.023743     -0.014584     -0.027427
Li	      2.09190      3.94255      2.29403        -0.024159      0.011451      0.080640
Li	      1.98273      2.00073      4.21217        -0.133635      0.222824     -0.081949
Li	      4.09780      4.08833      4.24222        -0.137320     -0.004169      0.016438
Li	      4.13893      7.95484      4.36909         0.155797     -0.090619     -0.044778
Li	      4.09701      6.10983      6.14895        -0.026170     -0.011683     -0.029983
Li	      8.26300      8.04547      8.73534        -0.027153     -0.080890     -0.057664
Mn	      4.15914     10.02673      6.53591         0.000688      0.240310     -0.194469
Mn	      8.33338      3.98419      4.37412         0.044018     -0.336889      0.336405
V	      6.03919      4.00188      6.61509        -0.366275     -0.169731      0.092996
Co	      8.31184      5.99078      6.60500         0.005210      0.067232     -0.033326
Co	      2.00845      4.01287      6.36298        -0.280086      0.441535     -0.568705
Cu	      2.12420      6.07183      8.58094        -0.028356     -0.065709     -0.062234
Cu	      6.24950      8.03515     10.80841        -0.035990     -0.021900      0.028932
Cu	      6.18267      6.13702      8.63485         0.252646     -0.049261      0.059139
Ni	      8.37556      6.01187     10.70287        -0.134885     -0.143527     -0.073511
O	      4.17653      6.06275      8.93500        -0.204140      0.057588     -0.149109
O	      6.25837      8.10081      8.22140        -0.049606      0.233650      0.432929
O	      2.13138      1.91372      2.22693         0.076133     -0.210926     -0.031501
O	      4.27778      3.99775      1.92660         0.160712      0.014082      0.193595
O	      4.29910      1.89442      4.49460         0.171157      0.106588      0.482264
O	      6.41074      3.93190      4.60518        -0.020256     -0.064653     -0.033635
O	      6.24255      2.08018      6.63811         0.068430      0.006116      0.060622
O	      8.43854      3.94559      6.38208         0.025665      0.110297      0.046382
O	      2.07325      4.05783      4.49442        -0.061304     -0.442132      0.039971
O	      4.04897      6.04026      4.24308         0.410660      0.053341      0.012634
O	      4.26917      4.05689      6.45849        -0.115816     -0.042346     -0.069745
O	      6.25474      5.87387      6.35426         0.049538      0.218543      0.058602
O	      6.25083      4.08297      8.37494         0.034121      0.129876      0.066720
O	      8.14138      6.01590      8.66004        -0.184589      0.050372     -0.979599
O	      1.92878      6.02983      6.26101        -0.148873     -0.675910      0.312156
O	      4.16456      8.16152      6.41981         0.760448     -0.057911      0.026956
O	      6.13935      6.04399     10.97977        -0.030539      0.135892      0.006891
O	      8.21108      8.08251     10.74120        -0.136055      0.400501      0.077666
