# total energy = -204.90085870 eV
 
CRYSTAL
PRIMVEC
-0.008142 6.276372 6.201882 
6.097799 -0.011235 6.204849 
4.055498 4.176424 0.002424 
PRIMCOORD
36 1
Li	      4.08804      8.34626      8.28965         0.007466      0.037932     -0.010996
Li	      6.10091      8.35780     10.25277         0.007937     -0.014631     -0.018316
Li	      0.01724      2.13935      2.13242         0.000474     -0.033984      0.018709
Li	      8.04900      4.17793      8.32044         0.054400     -0.023230      0.019368
Li	      4.06604      4.20186      4.07822         0.001165      0.022354     -0.066393
Li	      6.09590      4.19827      6.28702        -0.016206     -0.012119      0.010735
Li	      8.15444      6.27449     10.26876         0.018457     -0.002835      0.028064
Li	      4.08513      6.21505      6.20593         0.026566     -0.057791     -0.041497
Li	      6.03531      6.19951      8.30614        -0.021967      0.018049      0.007023
Mn	      4.04693      4.17913      0.02667         0.116091     -0.030874      0.112881
Mn	      2.00978      2.09933      4.11301        -0.087838     -0.105569     -0.183270
V	      4.07653      2.17399      6.26164         0.056381     -0.141985     -0.185721
Co	      8.10068      2.11059      6.24348        -0.032095     -0.071880      0.213851
Co	      4.02507      8.33917      4.16603         0.031226     -0.039783      0.109827
Cu	      2.03891      6.27765      8.24779        -0.204528      0.115485     -0.042568
Cu	      4.05374      6.26527     10.26368        -0.037809     -0.024557      0.006867
Cu	      2.05190      4.18370      6.21821        -0.020852      0.013153     -0.004320
Cu	      4.07500      4.22537      8.29269         0.092101     -0.163933     -0.038220
O	      4.00581      6.21418      8.20223         0.300502     -0.020509      0.106477
O	      6.15041      8.42669      8.17513         0.116351     -0.123288      0.014829
O	      8.18726      8.33619     10.56662         0.063175      0.044702     -0.042077
O	      2.05992      2.04106      2.12972        -0.021893      0.235220      0.028749
O	      4.13030      4.16297      1.91016        -0.207103      0.034614      0.022321
O	      3.98442      2.08762      4.24997         0.011097     -0.009863     -0.011139
O	      6.14140      4.32656      4.06312        -0.031661      0.096860      0.213216
O	      6.09066      1.94414      6.14855        -0.119069      0.036584      0.022825
O	      8.21521      4.10275      6.29264        -0.041193      0.110825     -0.094349
O	      1.92632      4.06426      4.20964        -0.097598      0.015868     -0.040268
O	      4.16358      6.37767      4.17619        -0.010298      0.049980     -0.017368
O	      4.07114      4.02645      6.07979         0.024539      0.012835     -0.118306
O	      6.17968      6.16608      6.04949        -0.015565     -0.087916      0.019388
O	      6.00165      4.17550      8.46626        -0.086716     -0.031235     -0.004149
O	      8.08544      6.27368      8.07497        -0.020237      0.056690      0.154358
O	      1.91836      6.47511      6.19585        -0.074415      0.087367     -0.197563
O	      3.96459      8.49285      6.14085         0.102233      0.069177     -0.010901
O	      6.01920      6.12489     10.45484         0.116881     -0.061715      0.017931
