# total energy = -205.99766039 eV
 
CRYSTAL
PRIMVEC
-0.042403 6.232385 6.097568 
6.292717 -0.015751 6.072139 
4.185603 4.128917 -0.001408 
PRIMCOORD
36 1
Li	      2.07968      2.00802      0.11590         0.091506     -0.028452     -0.186020
Li	      2.05135      0.15017      2.13211         0.123339     -0.220570      0.060518
Li	      4.07117      2.08783      2.13206         0.234999     -0.007537     -0.027047
Li	      8.30928      4.15555      4.02658         0.030898      0.006477      0.004011
Li	      6.24314      2.11266      4.05529        -0.036266      0.037688     -0.078902
Li	      4.35539      6.07576      2.08373        -0.128583     -0.000535      0.023013
Li	      2.08964      1.94813      3.93174         0.042989     -0.009774      0.153118
Li	      4.25886      4.20950      3.95070         0.053545      0.007719     -0.098121
Li	      4.09137      6.23030      6.03150        -0.099158     -0.046435     -0.004567
Mn	      6.30419      4.11738      6.00447         0.115116      0.071638      0.200059
Mn	      8.30693      8.31871      8.15152        -0.028152      0.029874     -0.078144
V	      6.15764      8.27747      6.04161         0.105879      0.212838      0.114407
Co	      4.22809      2.05029      5.89568        -0.020820     -0.007026      1.441202
Co	      8.36673      6.21750     10.10552        -0.008554     -0.124698      0.232575
Co	      6.21968      6.23283      8.14249         0.123762     -0.083841      0.302322
Cu	      2.22932      3.96986      2.08404         0.524447      0.243868     -0.270231
Ni	      6.32466      0.03654      6.07184         0.001318      0.127926     -0.934317
Ni	      4.15083      8.22110      4.03509        -0.019587      0.085015      0.074608
O	      2.12207      2.09183      2.03837        -0.167653      0.002162     -0.086004
O	      4.28399      4.13246      1.83488        -0.344589      0.051010      1.965673
O	      4.16943      2.08342      4.15923         0.060667     -0.005023     -0.530308
O	      6.28573      4.12160      4.18352         0.011290      0.148190     -0.138423
O	      6.18504      2.16569      6.11705        -0.406964      0.275361     -0.387929
O	      8.53936      4.18378      6.16438        -1.180914      0.046737      0.206213
O	      2.07434      4.26454      4.08816         0.034096      0.114615     -0.221769
O	      3.97523      6.25174      4.03525         0.038157     -0.155623     -0.119921
O	      3.98843      4.12170      6.19970         0.115994      0.027937      0.087877
O	      6.29421      6.21648      6.20789         0.191923     -0.165858     -0.416822
O	      6.08659      4.28639      8.03112         0.123533     -0.039398     -0.118200
O	      8.16927      6.30111      8.13636         0.074124     -0.043636     -0.190330
O	      1.97324      6.13679      5.96187         0.859447     -0.096560     -0.124907
O	      4.35373      8.26735      6.10572        -0.030947     -0.356868      0.099340
O	      4.28818      6.08015      8.15320        -0.154963     -0.019757     -0.029115
O	      6.36970      8.18228      8.07337        -0.138059     -0.038115      0.017033
O	      6.39138      6.13500     10.14064         0.037022      0.099637     -0.971561
O	      8.38592      8.16110     10.04123        -0.228845     -0.138987      0.030672
