# total energy = -207.49742588 eV
 
CRYSTAL
PRIMVEC
0.020498 6.331654 6.093891 
6.292272 0.063853 6.051750 
4.202147 4.199366 0.035365 
PRIMCOORD
36 1
Li	      2.19030      6.26410      8.05423        -0.003465      0.068933      0.060981
Li	      6.40191      8.35401     10.04473        -0.051941      0.034483      0.030416
Li	      4.15861      6.22036      2.15464        -0.024518      0.017692      0.010536
Li	      4.18186      4.34137      3.98755         0.011722     -0.025230      0.034903
Li	      6.27594      4.31740     10.05391         0.014031     -0.023179     -0.063336
Li	      8.37773      6.45089     10.09352        -0.000260      0.033928     -0.082171
Li	      4.09320      6.47809      6.07619         0.080994     -0.021910     -0.013654
Li	      8.26226      8.59112      8.23190        -0.006928      0.043018     -0.050295
Li	      6.24092      6.46738      8.23891         0.024448     -0.056374     -0.045232
Mn	      6.26022      6.32321      4.05461         0.039311     -0.044322      0.113291
Mn	      8.40427      6.33330      6.15300        -0.271579     -0.233465     -0.104298
V	      6.21188      4.18650      6.16628         0.088359      0.078613      0.148927
Co	      4.26653      8.45848      8.15183        -0.091906     -0.024753      0.182565
Co	      4.25667      6.34844     10.08805        -0.017194      0.008080      0.027952
Co	      2.16505      4.18384      2.07750        -0.080544      0.125454     -0.079771
Cu	      2.19090      8.35291      6.01748         0.082493      0.296820      0.167405
Cu	      2.09155      4.34167      6.10682         0.287114      0.141345     -0.193038
Ni	      0.10515      6.31904      6.05823        -0.193450      0.171240      0.033507
O	      2.10688      6.45139      6.02559         0.140177     -0.508274      0.040496
O	      2.23890      2.22908      2.06546         0.092805     -0.030996     -0.042458
O	      4.07371      4.08874      2.02865         0.031306     -0.075665      0.087047
O	      4.09167      2.00798      4.07893         0.025748     -0.037354     -0.058760
O	      6.40777      4.35233      4.19190        -0.007187     -0.023000      0.006139
O	      6.09999      2.23381      6.04234         0.209552     -0.053576     -0.007340
O	      8.34100      4.29620      6.12493         0.010992     -0.032870      0.038703
O	      2.14332      4.04818      4.01565        -0.003497     -0.019796     -0.000813
O	      4.43383      6.30252      4.08587        -0.020100     -0.002993     -0.011223
O	      4.27298      4.06960      6.13641         0.068204      0.141551     -0.010867
O	      6.42204      6.21672      6.00728        -0.080877      0.075739      0.009325
O	      6.46996      4.24946      7.94781         0.006325     -0.053874     -0.075289
O	      8.41679      6.17859      8.03443        -0.013423     -0.071023      0.058321
O	      4.32764      8.47522      6.26294        -0.279183     -0.096957     -0.028019
O	      4.21088      6.51153      8.22482         0.000474      0.072340     -0.117128
O	      6.18635      8.48828      8.06984        -0.062842      0.050554      0.135482
O	      6.14743      6.36911     10.15823        -0.009250      0.011194     -0.145856
O	      8.41056      8.63830     10.15990         0.004088      0.064626     -0.056448
