# total energy = -209.84564671 eV
 
CRYSTAL
PRIMVEC
-0.013694 6.207541 5.992874 
6.316303 -0.032742 6.012603 
4.210004 4.150075 -0.020350 
PRIMCOORD
36 1
Li	      4.19663     10.34475      5.98153         0.239729      0.012084     -0.006042
Li	      8.40881      2.10186      5.99980        -0.016256     -0.233640      0.015307
Li	      2.11183      6.26311      7.84574         0.037759      0.019074     -0.192534
Li	      8.43070      4.07494      4.10001        -0.021809      0.021484     -0.017714
Li	      6.37214      2.01240      7.90641         0.021281     -0.050638      0.001461
Li	      8.46701      6.08334      6.00481         0.033719      0.014841     -0.001301
Li	      4.17295      8.25714      4.09466        -0.021318     -0.035899      0.014140
Li	      6.18218      8.33390      5.94231        -0.000868      0.238974      0.020869
Li	      4.18015      6.30147      5.96328        -0.218755      0.001038      0.013579
Mn	      4.18985      8.25280      7.91947         0.158133      0.067208     -0.304032
Mn	      6.28267      6.17453      7.97439         0.000580     -0.018570     -0.017898
V	      4.23755      4.16514      4.05719         0.076904      0.075192     -0.096484
Co	      6.32385      2.05030      4.01808        -0.027716      0.054853      0.043064
Co	      6.32951      4.09509      6.01963        -0.113577     -0.101728     -0.062771
Co	      2.10809      6.26315      4.11698        -0.358318      0.003435     -1.699801
Co	      4.15079      4.14125      7.96549        -0.146538      0.050604     -0.295377
Cu	      8.42737      4.08438      7.95489         0.045052      0.073592      0.101399
Ni	      6.30713      6.21887      4.01147         0.121727     -0.210363      0.346025
O	      2.30071      2.05580      2.05014        -0.008538      0.078435     -0.063752
O	      4.35280      4.03299      2.13487         0.112443     -0.022679      0.028249
O	      4.30450      2.12550      3.92750         0.076124     -0.092861      0.047146
O	      6.26932      4.04864      4.09338         0.113703     -0.081657      0.050819
O	      6.30333      2.16166      5.92246        -0.036843      0.129487     -0.064414
O	      8.23256      4.10925      6.07395        -0.118921      0.017963     -0.088238
O	      2.23743      4.11947      3.94865        -0.050692      0.620420      0.204321
O	      4.23240      6.11175      3.89967        -0.575083      0.047304      0.193152
O	      4.29251      4.11875      5.93519         0.108690     -0.086700      0.016039
O	      6.32478      6.07021      6.05968         0.002145     -0.030135     -0.072081
O	      6.13039      4.25235      7.95943        -0.040131     -0.027924      0.051351
O	      8.21991      6.18442      8.08226         0.122617     -0.104558      0.350510
O	      2.10187      6.19509      5.88248         0.039730      0.143635      0.279816
O	      4.20180      8.31088      6.07794        -0.005085      0.012332      0.201386
O	      4.33421      6.26729      7.98597         0.012187      0.048333      0.104821
O	      6.27815      8.13485      8.03091        -0.077694      0.010541     -0.040949
O	      6.31579      6.31183      9.91218         0.504905      0.055310      0.365720
O	      8.23036      8.24368      9.84894         0.010714     -0.698785      0.574214
