# total energy = -209.41764054 eV
 
CRYSTAL
PRIMVEC
0.033001 5.996623 6.033421 
6.653018 -0.006043 6.070442 
4.412165 3.998666 0.020110 
PRIMCOORD
36 1
Li	      4.34477      1.99708      2.09800        -0.026306      0.039657     -0.101124
Li	      6.60183      1.98905      4.04420         0.039377      0.041628     -0.157292
Li	      0.22248      1.95949      2.08795         0.180869     -0.027675      0.087175
Li	      2.21840      3.97862      2.12743        -0.010342     -0.085175     -0.199632
Li	      2.33103      2.13509      3.98067        -0.029046     -0.213755     -0.104033
Li	      4.22665      3.93264      3.97339         0.120554      0.069227     -0.111965
Li	      0.11218      3.98611      4.01058         0.026163     -0.041522      0.001712
Li	      2.27538      4.00734      5.95022        -0.080206      0.038169      0.294372
Li	      8.82117      8.01403      8.12265        -0.148190      0.089400      0.032151
Mn	      4.38884      3.97200      0.02557         0.115524      0.048295      0.316114
Mn	      6.63172      6.06354      8.10509        -0.403531      0.625153      0.300890
V	      6.61482      3.93684      6.05197         0.309228     -0.235020     -0.245358
Co	      2.23196      7.97437      6.05492        -0.106196     -0.026325      0.568529
Co	      6.50737      3.94667      2.10922        -0.050357      0.065632      0.264767
Co	      4.47826      5.97803     10.07370        -0.181896      0.079294      0.037842
Co	      2.47945      5.98622      3.94861        -0.832708     -0.485710     -0.014736
Cu	      8.79570      6.03169      6.08224         0.038030     -0.157130      0.047386
Cu	      4.47187      6.04688      6.02468        -0.120804     -0.083085      0.226385
O	      8.57472      6.04575      8.06412         0.389879     -0.027310     -0.042727
O	      2.23260      1.81618      1.96969         0.088523      0.487203     -0.246994
O	      4.50027      3.97944      1.95493        -0.318085      0.011356     -0.225602
O	      4.45509      1.88017      4.15359        -0.021622      0.042232      0.166543
O	      6.89471      4.01626      4.13246         0.192061     -0.022147      0.276696
O	      6.87558      1.99176      6.10893         0.100462     -0.016672     -0.026950
O	      8.77251      3.92439      5.99719        -0.089195      0.059983      0.005148
O	      2.19846      4.10958      4.03279         0.055193      0.768224      0.005434
O	      4.32917      6.00751      4.09226         0.432418      0.071128     -0.091250
O	      4.74230      3.93855      5.96566        -0.349858      0.112762      0.014187
O	      6.57726      5.96799      6.16784        -0.184465      0.081718     -0.246516
O	      6.70099      4.08287      7.91417         0.039288     -0.175057      0.055625
O	      2.17920      6.05800      6.04695         0.507841     -0.033174     -0.268658
O	      4.16599      8.06407      6.05151        -0.044270      0.021428     -0.043158
O	      4.66231      5.99767      8.13083         0.121164     -0.068837     -0.250107
O	      6.68571      8.04957      8.04928         0.090558     -0.716739     -0.126860
O	      6.44392      5.98753     10.05774        -0.000428     -0.064613      0.079842
O	      8.82452      7.97563     10.21573         0.150373     -0.272542     -0.277841
