# total energy = -209.55744350 eV
 
CRYSTAL
PRIMVEC
0.058236 6.212242 6.114670 
6.283192 0.052315 6.121082 
4.210924 4.167904 0.012336 
PRIMCOORD
36 1
Li	      6.45617     10.29789      8.18505        -0.015695     -0.030707     -0.101412
Li	      8.28058      4.10518      4.10154         0.037194     -0.002334     -0.034994
Li	      6.49071      8.44064     10.17861         0.041905     -0.052507     -0.031964
Li	      6.25389      4.21744      6.08171        -0.077583      0.041950      0.012827
Li	     10.44355      8.31410     10.21426        -0.003495      0.107648      0.018589
Li	      8.45589      6.40869     10.23745        -0.116127      0.039553     -0.006994
Li	      2.18717      4.16925      6.10033        -0.057045      0.152952      0.041460
Li	      4.16141      6.18553      6.09380        -0.137924     -0.025918      0.014375
Li	      8.37900      8.38497      8.23165        -0.040946     -0.018091      0.038896
Mn	      4.26081      8.30176      8.15855        -0.018322     -0.036521      0.327830
Mn	      6.30404      2.17575      8.17912        -0.037394     -0.043212      0.099730
V	      6.28749      6.24343      8.24690         0.321462      0.071605      0.352603
Co	      0.16783      6.17964      6.00652        -1.338223      0.101945      0.583170
Co	      2.14011      4.14689      2.03780         0.013734      0.050235      0.118031
Co	      6.29978      6.23178      4.15906        -0.107001      0.221491     -0.179538
Co	      4.21289      2.12387      6.13736         0.171053      0.263248     -0.573183
Ni	      8.44484      8.36274     12.09886         0.110861     -0.326043      0.117900
Ni	      4.22748      4.17643      4.18488         0.018938     -0.051368     -0.145376
O	      8.42466      8.36937     10.17035         0.010658      0.133945     -0.163457
O	      2.18059      2.21317      1.95591        -0.044296     -0.001202      0.044609
O	      4.09873      4.12821      2.04614         0.058910     -0.053026     -0.586460
O	      4.07047      2.10007      4.09513        -0.018464     -0.135120     -0.736674
O	      6.26860      4.37371      4.07097         0.100161     -0.044563      0.125083
O	      6.21006      2.10145      6.22776         0.367858     -0.649565     -0.253609
O	      8.57261      4.30613      6.21731         0.408379     -0.060352     -0.134376
O	      2.15808      3.98404      3.96900         0.045982     -0.213696     -0.081040
O	      4.32821      6.22338      3.98731         0.118002      0.115126     -0.046219
O	      4.20393      4.03502      6.18259         0.030005     -0.132388      0.115674
O	      6.49648      6.25348      6.28121        -0.271146     -0.033966     -0.067540
O	      6.49557      4.20894      8.13910         0.087845     -0.115986     -0.067957
O	      8.39343      6.13759      8.11098         0.068132     -0.202034      1.248603
O	      1.98908      6.25116      6.12367         0.180728     -0.003334     -0.042013
O	      4.21544      8.35180      6.24366         0.349689      0.858694     -0.598112
O	      4.35992      6.37624      8.11135        -0.224729      0.009233     -0.056766
O	      6.15793      8.23268      8.20167        -0.042253      0.081537      0.042897
O	      6.37001      6.23266     10.05463         0.009148     -0.017231      0.605407
