# total energy = -214.36778378 eV
 
CRYSTAL
PRIMVEC
0.007672 6.228832 6.240364 
6.220235 -0.005346 6.253846 
4.127002 4.141316 0.016601 
PRIMCOORD
36 1
Li	      8.20508      2.09338      6.17244         0.038235     -0.029434     -0.100050
Li	      2.14799      0.07663      2.13055         0.075405     -0.005084     -0.138501
Li	      4.06205      2.02481      2.12832         0.055530     -0.037060     -0.037078
Li	      8.22562      4.13204      4.20002         0.202011     -0.123666     -0.002894
Li	      6.25760      2.07777      4.31490         0.100565     -0.125911     -0.048860
Li	      6.25654      2.07509      8.18429        -0.108238      0.037285      0.031464
Li	      4.30382      1.99353      6.18439        -0.032758     -0.089180      0.118576
Li	      6.24614      4.02284      6.21953         0.074106     -0.059975      0.112863
Li	     10.27681      8.28770     10.45807        -0.084160      0.135069     -0.034688
Mn	      8.27176      4.11632      8.31404        -0.460866      0.672458     -0.312411
Mn	      6.21244      6.18269      4.16171        -0.667788      0.554148      0.130966
V	      6.15623      8.31661      6.40306        -0.194400      0.336512      0.061334
Co	     10.30256      4.19778      6.31032         0.350199      0.225936     -0.868917
Co	      4.22404      4.09307      4.11787        -0.171029      0.254939     -0.128406
Co	      8.21803      6.32954     10.38275         0.318932      0.055679      0.602967
Co	      4.11687      6.26299      6.24374        -0.262479      0.046858      0.154259
Co	      4.25143      4.15704      8.34143         0.058826     -0.250167      0.492689
Co	      6.15177      6.18707      8.43046         0.124235     -0.136948     -0.035484
O	      2.03969      2.18776      2.23941         0.036333     -0.183447      0.113645
O	      4.00463      4.14127      2.00952         0.395186     -0.191802      1.225671
O	      3.96470      2.07730      4.19937         0.518654      0.620443     -0.035636
O	      6.22244      4.30058      4.16221        -0.888253     -0.515798      0.038763
O	      6.22873      1.92549      6.25276        -0.024465     -0.219205      0.049744
O	      8.40347      4.10919      6.43193        -0.060162     -0.000633     -0.057115
O	      2.08324      4.07490      4.15419         0.580669     -0.203590     -0.014296
O	      4.13438      6.20483      4.29613         0.649957     -0.543479     -0.062566
O	      4.04471      4.31030      6.23856         0.259351     -0.117338     -0.866748
O	      6.05092      6.32479      6.13952         0.035041     -0.130715     -0.157482
O	      6.35696      4.17961      8.29040         0.085266     -0.152746     -0.084008
O	      8.25789      6.12665      8.41239        -0.031067     -0.316896     -0.673652
O	      2.09611      6.12931      6.19545         0.064529     -0.147500      0.435259
O	      4.25790      8.27335      6.26323        -0.074316     -0.005517     -0.012331
O	      4.18933      6.21499      8.16562        -0.131406      0.061457     -0.191137
O	      6.23547      8.25474      8.18191        -0.032063      0.136764      0.187819
O	      6.32532      6.21699     10.58183        -0.799565      0.036237      0.218850
O	      8.30689      8.25563     10.33108        -0.000014      0.412307     -0.112608
