# total energy = -206.27875768 eV
 
CRYSTAL
PRIMVEC
0.004287 6.431833 6.168666 
6.034960 0.015283 6.157790 
4.051865 4.310047 -0.018673 
PRIMCOORD
36 1
Li	      6.03918      6.40466     12.17903         0.012314     -0.020971      0.024928
Li	      6.02645      8.50865     10.30332         0.017125     -0.024531      0.004018
Li	      0.05982      2.20510      2.11115        -0.033848      0.066897      0.004581
Li	      4.06836      4.38423      4.21534        -0.036231      0.054094      0.012340
Li	      4.07067      2.22361      6.04657         0.055966      0.020117      0.032529
Li	      4.05182      8.64126      4.19952         0.003180      0.019568      0.002291
Li	      8.00648      6.49094     10.34851        -0.063777      0.046895     -0.021630
Li	      6.00431      8.54929      6.13741        -0.005794      0.021660     -0.046647
Li	      6.00530      6.51716      8.28752         0.031692      0.033960      0.031062
Mn	      8.04215      2.17431      6.13141        -0.147423     -0.039562     -0.037331
Mn	      4.07763      4.29524      8.20980        -0.020139     -0.015061     -0.033480
V	      8.10650      4.55872      8.31903        -0.056660      0.563338      0.164696
Fe	      6.00458      4.27091      2.06013        -0.017046      0.029467     -0.068215
Co	      6.07175      4.26905      6.10189         0.046248     -0.107255      0.263904
Cu	      6.05298      6.41428      4.12667        -0.011502      0.139605     -0.175457
Ni	      4.06459      8.55871      8.21989         0.109628     -0.041011     -0.030556
Ni	      4.04800      6.41982     10.26081         0.039159     -0.065437     -0.000653
Ni	      4.04830      6.45029      6.10836        -0.271515     -0.004227      0.115059
O	      4.18932      6.43956      4.13000        -0.034788     -0.003715     -0.318117
O	      5.89800      6.49880     10.24751         0.299761      0.027143      0.035365
O	      2.01168      2.11421      2.18508        -0.154965      0.042527      0.148923
O	      3.91751      4.24384      2.03727        -0.242558      0.108689      0.095171
O	      3.89601      1.96711      4.07764         0.078478      0.052049      0.211419
O	      6.15493      4.14869      4.12648        -0.212163     -0.208295     -0.025607
O	      6.14136      2.34084      6.17776        -0.062892     -0.033123     -0.028181
O	      8.00964      4.16467      6.26394         0.038935      0.081251      0.091091
O	      1.99543      4.41850      3.91528         0.044282      0.124745     -0.323819
O	      4.13961      4.29071      6.25831        -0.049916     -0.066299     -0.218663
O	      6.06656      6.23295      6.00351         0.250231     -0.044474      0.107885
O	      6.16251      4.32170      8.05279         0.193335      0.073503     -0.039633
O	      8.09708      6.32970      8.16943         0.002673     -0.556815      0.025445
O	      1.96751      6.63101      6.24244        -0.139435     -0.079804     -0.080531
O	      3.94082      8.53878      6.19800         0.189256      0.194479     -0.147618
O	      3.96639      6.47500      8.17864         0.041816     -0.157699      0.198417
O	      6.11749      8.71547      8.12315         0.106959     -0.067745     -0.034411
O	      8.13256      8.71324     10.12232        -0.000385     -0.163962      0.061427
