# total energy = -205.99928269 eV
 
CRYSTAL
PRIMVEC
0.039510 6.031509 6.237201 
6.481060 0.039087 6.236197 
4.345302 4.044054 0.002657 
PRIMCOORD
36 1
Li	      8.56577      2.07134      6.32653        -0.028505     -0.026930     -0.032954
Li	      2.15602      0.07755      2.08470         0.108405     -0.027302      0.010992
Li	      8.60942      4.09756      4.25250        -0.048542      0.002732     -0.158988
Li	      6.50276      2.09561      8.23310        -0.148758      0.028188     -0.005670
Li	      2.20081      1.96182      4.10372         0.034595     -0.018297     -0.024268
Li	      8.74201      6.02603      6.27566         0.041521      0.013479      0.076480
Li	      6.57710      4.10627      6.25743        -0.008423      0.014992      0.024167
Li	      4.35410      6.07600      6.23366        -0.027497     -0.005998      0.116233
Li	      6.51365      6.02557      8.32970        -0.141926     -0.020434      0.015740
Mn	      4.41887      4.09026      4.13723        -0.029076      0.114985     -0.152977
Mn	      4.33357      4.10111      8.29214         0.268078      0.003453      0.246453
V	      6.57778      7.95569      6.27741        -0.075992      0.300321      0.149309
Fe	      6.47298      2.05646      4.25604         0.055274      0.111185     -0.146171
Co	      4.20589      1.97335      2.06197         0.204400      0.088262      0.185045
Cu	      4.32421      4.04484      0.04403         0.126433      0.041318      0.072304
Cu	      8.63068      4.07315      8.23165         0.036124      0.044164      0.014487
Cu	     10.82725      8.08893     10.38216        -0.158056     -0.092416     -0.080943
Cu	      8.68940      6.09886     10.38398         0.053128      0.084780      0.089531
O	      8.66016      6.14090      8.39828        -0.014706     -0.270708     -0.225407
O	      2.10950      5.92484      6.12750         0.052490     -0.135101      0.177571
O	      6.62206      6.03103     10.42372        -0.088533     -0.030234     -0.021785
O	      2.29629      2.08835      2.08088         0.587268      0.112041      0.008522
O	      4.44517      3.89355      2.06404        -0.037219     -0.179786     -0.006485
O	      4.45459      2.11363      4.06279        -0.234484     -0.156683     -0.621718
O	      6.33253      4.03799      4.20769         0.051715      0.009830      0.036204
O	      6.51321      1.99324      6.18083        -0.034771      0.082330      0.016821
O	      8.77826      4.07024      6.30632        -0.093317      0.039047      0.103476
O	      2.41889      4.07892      4.14199         0.090316     -0.163052      0.090781
O	      4.24903      6.04247      4.17252         0.188298      0.010389     -0.041487
O	      4.23794      4.05669      6.34307        -0.317677     -0.014035     -0.024491
O	      6.52651      6.21283      6.16495         0.007782     -0.219007      0.011458
O	      6.24622      4.07280      8.39758         0.003143     -0.020698     -0.065441
O	      4.52088      8.08155      6.24387         0.003855     -0.146661      0.365433
O	      4.32636      6.04850      8.34321        -0.001474      0.425256     -0.057150
O	      6.64603      8.07927      8.25015        -0.249592     -0.038234     -0.146419
O	      8.51604      8.08219     10.25812        -0.174277      0.038823      0.001346
