# total energy = -206.09420863 eV
 
CRYSTAL
PRIMVEC
0.020643 6.113099 6.261539 
6.245371 0.007298 6.275300 
4.172983 4.093550 -0.004795 
PRIMCOORD
36 1
Li	      4.35185      8.19966      8.27751        -0.029459     -0.136400     -0.114714
Li	      8.43413     10.13488     10.50564         0.070366      0.025345     -0.054231
Li	      6.36438      8.10962     10.41211        -0.095019     -0.017017      0.113273
Li	      6.23634      2.08227      8.28939        -0.080054      0.082823      0.107882
Li	      8.13146      4.07332      8.30211        -0.123695      0.079696     -0.021013
Li	      6.27682      4.05528      6.37754        -0.033179      0.006527     -0.002985
Li	      6.19236      4.10202     10.39751         0.030601     -0.058497      0.146188
Li	      6.18598      8.15531      6.39062        -0.066992     -0.055693     -0.114343
Li	      6.23836      6.08687      8.51277        -0.016687     -0.050573      0.018563
Mn	      2.07163      6.10001      4.19132         0.005354     -0.014196     -0.073508
Mn	      4.19868      4.11406      8.35764         0.038604     -0.207511     -0.381477
V	      2.24121      2.10088      4.13104        -0.088741      0.192966      1.008525
Fe	      8.45791      6.07322      6.31797        -0.066108      0.290918     -0.114490
Co	      2.09515      0.01750      2.08979        -0.427587     -0.269549      0.024909
Ni	      4.17269      4.06058      0.03763        -0.146663     -0.414563     -0.266630
Ni	      8.31585      2.09523      6.28848        -0.015362      0.190230     -0.110821
Ni	      4.20969      4.11563      4.10599        -0.056237      0.011418      0.294981
Ni	      4.16250      6.11334      6.28469         0.393579      0.228338     -0.136094
O	      2.04165      1.98434      2.27747         0.118704      0.066356     -0.562769
O	      4.36733      4.08377      2.09380         0.461396     -0.012886      0.079869
O	      4.07068      2.04861      4.20820        -0.165965     -0.014312     -0.104720
O	      6.23902      4.28739      4.02662         0.147616     -0.118844     -0.058654
O	      6.22012      2.05436      6.22164         0.010041     -0.024872      0.036951
O	      8.36896      4.12318      6.28711        -0.198829      0.159922      0.101029
O	      2.12618      3.98157      4.06822        -0.137126      0.087082     -0.079283
O	      4.09512      6.09773      4.32088        -0.041717     -0.001438     -1.032702
O	      4.15375      4.11568      6.33843         0.009678     -1.118918      0.095286
O	      6.27651      6.12466      5.98064         0.250674     -0.056315     -0.399123
O	      6.03407      4.11502      8.34931         0.438356      0.080147     -0.036535
O	      8.28226      6.26336      8.27123        -0.032374     -0.113320      0.264783
O	      2.06923      6.15996      6.38776         0.002525     -0.156173      0.089550
O	      4.09814      8.04658      6.30088         0.094739      1.234327      0.147232
O	      4.09298      6.04474      8.25846        -0.147003      0.055222      1.015408
O	      6.41314      8.29843      8.37991        -0.275389      0.143986     -0.004795
O	      6.43395      6.08452     10.51717         0.171188      0.082058     -0.153325
O	      8.34073      8.10798     10.29698         0.000766     -0.176283      0.277781
