# total energy = -208.57680016 eV
 
CRYSTAL
PRIMVEC
-0.002517 6.036652 6.255531 
6.484335 -0.009919 6.263227 
4.286503 3.992614 0.031378 
PRIMCOORD
36 1
Li	      6.43296      9.92224      8.33816         0.097566     -0.006801     -0.037437
Li	      4.50522      6.02151     10.50189         0.004986     -0.000493     -0.021169
Li	      6.24097      4.04135      6.35580        -0.014675      0.006988     -0.047359
Li	      6.39544      4.09534     10.34721        -0.017912      0.017621      0.036319
Li	      8.47301      6.04886     10.46739        -0.009389      0.008941      0.074891
Li	      2.24532      4.00913      6.29222        -0.037621      0.010036      0.029774
Li	      4.31790      5.95995      6.25416         0.004376      0.041885      0.049890
Li	      4.41307      4.01755      8.28012        -0.024089      0.080693     -0.029101
Li	      6.40111      5.93816      8.45006        -0.101112      0.005178      0.040918
Mn	      8.64471      8.02711     12.51058         0.198016     -0.062756      0.065525
Mn	      6.40674      5.97174      4.20975        -0.028379     -0.164783      0.178448
V	      4.38945      7.88802      8.32333        -0.087470     -0.100125     -0.110102
Fe	      4.27924      4.02136      4.25307         0.047220     -0.135296     -0.190727
Co	      0.06633      6.05896      6.27160         0.014314     -0.054187     -0.279527
Co	      6.51684      2.03554      8.34146         0.023551      0.008121      0.010644
Cu	      8.53848      4.09062      8.38119        -0.063001      0.046821      0.077632
Cu	      8.47148      5.99146      6.40549        -0.156990     -0.122173     -0.058920
Ni	      6.61235      8.04681     10.39132        -0.239599      0.108927      0.122052
O	      8.89468      5.98786      8.34461         0.250641      0.090894      0.147378
O	      2.15005      2.04904      2.07517        -0.191328      0.054487      0.021404
O	      4.39873      3.96050      2.05887        -0.050396      0.093796     -0.075080
O	      4.11485      1.98963      4.05837         0.187487      0.045947     -0.009887
O	      6.30723      4.03473      4.17645         0.036962      0.174501     -0.062990
O	      6.69359      1.95077      6.37987         0.062446     -0.060884     -0.014338
O	      8.87567      4.00554      6.36672        -0.003130     -0.023869     -0.030406
O	      2.25326      3.91412      4.11114        -0.141837      0.055081      0.005794
O	      4.45926      5.99751      4.06360         0.046545      0.081053     -0.093639
O	      4.24030      3.92435      6.17192         0.005817      0.234038      0.337436
O	      6.37226      5.98798      6.04129        -0.043941      0.011676     -0.058217
O	      6.42384      3.91511      8.33139         0.052341     -0.010734      0.021498
O	      2.02963      6.15741      6.25660        -0.052440     -0.179153      0.069264
O	      4.15098      8.10122      6.36466        -0.048158      0.164782     -0.150913
O	      4.27296      6.13963      8.30835        -0.037435     -0.145327      0.038070
O	      6.28154      7.95357      8.39229         0.137316     -0.019887     -0.107821
O	      6.49364      6.11113     10.60777        -0.031765     -0.335388      0.185656
O	      8.59805      8.08367     10.66455         0.211082      0.080390     -0.134965
