# total energy = -207.76422076 eV
 
CRYSTAL
PRIMVEC
0.027151 6.103966 6.188078 
6.416639 0.024791 6.191312 
4.296365 4.090977 -0.002735 
PRIMCOORD
36 1
Li	      6.37814      4.12137      2.14027         0.032811     -0.055741      0.072324
Li	      4.30789      0.07760      4.20533        -0.166421     -0.030488     -0.005594
Li	      6.28042      2.01906      4.22994        -0.016013      0.153717     -0.003461
Li	      6.47757      6.07955      4.19202         0.036295     -0.095262      0.133937
Li	      4.41357      4.05240      4.20105         0.148540     -0.018822      0.063822
Li	      4.19320      2.08207      6.07091        -0.094237      0.035556     -0.055471
Li	      8.54505      6.14078     10.34127         0.053129      0.043764      0.015458
Li	      4.41162      6.11665      6.06337         0.060112     -0.053276     -0.000257
Li	      6.45822      6.12882      8.21880        -0.024053      0.015095     -0.066782
Mn	      4.22139      1.99447      2.15993         0.094448     -0.130426     -0.072831
Mn	      4.32082      6.13824      2.10054        -0.051276      0.032289      0.068639
V	      8.44154      8.31006      8.26343         0.132851      0.209836     -0.314837
Fe	      8.55114      4.19653      8.32755        -0.106780      0.041408     -0.161026
Co	      2.16009      8.07262      6.19994        -0.073307      0.454740      0.624151
Co	      6.45698      4.17723      6.10689         0.013669      0.070675      0.057316
Cu	      6.45306      6.10464     12.31067         0.027207     -0.000970      0.145073
Cu	      0.03987      4.08717      4.15702        -0.026781     -0.096847     -0.009148
Cu	      2.19076      4.06464      6.03927         0.191279     -0.196658      0.112505
O	      2.09998      6.18705      6.18983        -0.268852      0.167722      0.055310
O	      6.42511      6.04956     10.41259         0.018534      0.051822      0.064544
O	      2.06693      2.08808      2.08207        -0.017780     -0.145132     -0.871185
O	      4.18160      4.05859      1.99426         0.061522     -0.161279     -0.141967
O	      4.30985      2.05753      3.99035         0.029457      0.020510      0.123516
O	      6.43432      4.05512      4.31110        -0.028025     -0.006015     -0.111687
O	      6.56172      2.15467      6.29581         0.440560     -0.364103     -0.095342
O	      8.46573      3.96865      6.23393         0.399691     -0.252879      0.076083
O	      2.06043      4.09897      4.08269        -0.023487     -0.001151      0.045993
O	      4.30665      6.20539      3.96123         0.014617     -0.009661      0.080750
O	      4.49775      4.10677      6.37440        -0.088716     -0.001826      0.018655
O	      6.46833      6.09809      6.18986         0.045584      0.280171     -0.048286
O	      6.47337      4.12669      8.06675        -0.037284      0.167743     -0.155611
O	      8.71504      6.19223      8.20493        -0.032747      0.060993     -0.023458
O	      4.12837      8.06066      6.39498        -0.671264      0.016504     -0.112525
O	      4.29061      6.01449      8.27657        -0.009355     -0.079015      0.008534
O	      6.65840      8.16328      8.14594        -0.023597     -0.030745     -0.041318
O	      8.70192      8.15601     10.05757        -0.040334     -0.092251      0.524178
