# total energy = -209.65107366 eV
 
CRYSTAL
PRIMVEC
0.020582 6.201872 6.301917 
6.143365 0.009345 6.313199 
4.061989 4.108724 0.039972 
PRIMCOORD
36 1
Li	      1.99112      2.03589      0.10373         0.007656     -0.005047     -0.001967
Li	      4.06539      2.02450      2.18130         0.049511      0.084661      0.104603
Li	      8.11407      4.18157      4.27945         0.036590     -0.016654      0.035313
Li	      4.09830      4.08350      4.28444         0.009382     -0.047100      0.083042
Li	      8.13716      6.12954      6.32702         0.007058      0.053874     -0.034076
Li	      6.14133      4.20484      6.25579        -0.031697     -0.013086     -0.011218
Li	      2.04594      6.16548      4.23528        -0.024521      0.056031     -0.024324
Li	      6.14274      8.23905      6.40981         0.064532     -0.007242      0.131274
Li	      6.14391      6.25871      8.30050         0.088470      0.037699     -0.052051
Mn	      8.19749      4.14665      8.37772        -0.096262     -0.175537     -0.270237
Mn	      4.09034      6.17770      6.34644        -0.075939     -0.159103     -0.135068
V	     10.19422      8.30432     10.59710        -0.364693      0.177767     -0.120569
Fe	      5.99959      2.10890      4.27498         0.344211     -0.165185     -0.006427
Co	      0.04163      6.19401      6.30849        -0.019295     -0.058192     -0.076040
Co	      4.12334      4.11449      8.36152        -0.237502      0.515345      0.007226
Ni	      6.12410      4.11464      2.16834        -0.092481     -0.124705      0.052247
Ni	      6.14177      2.07023      8.35081        -0.066685      0.016923     -0.022233
Ni	      6.17063      6.13690      4.27087         0.012431     -0.019703      0.115281
O	      2.00920      2.14782      2.16664         0.171700      0.347956     -0.133581
O	      4.01520      4.11749      1.99745        -0.247035     -0.088700      0.058669
O	      4.12053      2.07132      4.22682        -0.111288     -0.015409     -0.035114
O	      6.12898      4.07065      4.20968         0.028144      0.030979      0.012264
O	      6.18151      1.90407      6.25665         0.042571     -0.063936      0.081450
O	      8.30183      4.08758      6.48405        -0.044200     -0.020649      0.167425
O	      1.90644      4.13415      4.03621         0.118356      0.029114     -0.091522
O	      4.06440      6.26074      4.35977        -0.051102     -0.066004      0.104853
O	      4.08940      4.27088      6.45579        -0.053391      0.075998      0.109573
O	      5.96346      6.21733      6.28969        -0.025255      0.053623      0.137852
O	      6.17348      4.12403      8.46951         0.014638      0.094272     -0.036052
O	      8.19673      6.10333      8.40031        -0.061516      0.528566      0.069020
O	      2.05213      6.19028      6.40044         0.090665      0.025907     -0.063079
O	      4.07826      8.24278      6.18968        -0.007481     -0.046119      0.128611
O	      4.10375      6.22036      8.24651         0.188073     -0.963966      0.096224
O	      6.28671      8.25265      8.57361         0.349811     -0.090547     -0.218494
O	      6.16510      6.16117     10.70499        -0.000778     -0.000802      0.017738
O	      8.31849      8.25076     10.34634        -0.012678      0.018972     -0.180614
