# total energy = -211.63932300 eV
 
CRYSTAL
PRIMVEC
0.049576 6.239702 6.294360 
6.153501 0.053405 6.289916 
4.116346 4.170750 0.021334 
PRIMCOORD
36 1
Li	      4.22241     10.32307      6.38299        -0.007276     -0.049509      0.053687
Li	      6.17552     10.37128      8.33862        -0.015080     -0.013570     -0.004409
Li	      4.22040      8.36887      8.40415         0.014245     -0.019154      0.030668
Li	      6.23184      8.33640     10.40950         0.039374      0.017936     -0.047038
Li	      2.10738      4.13537      2.15625        -0.007204     -0.046317      0.047801
Li	      4.12414      2.12314      6.22298         0.005507      0.016780     -0.048815
Li	      2.06152      6.23706      4.27688        -0.023976     -0.012716      0.016579
Li	      2.03958      4.26170      6.31891         0.008641     -0.009416     -0.027586
Li	      8.18682      8.40241      8.45320        -0.016309      0.038784      0.067240
Mn	      6.18169      4.22688      6.31124         0.055530      0.062265     -0.239950
Mn	      6.18796      6.35997      8.44649         0.054539      0.099170     -0.073014
V	     10.16172      6.22836      8.40631         0.027521     -0.102325     -0.047026
Fe	      2.17050      8.26809      6.27164        -0.108538      0.120502      0.130001
Co	      4.11317      0.06064      4.20429         0.133463     -0.097464     -0.110346
Co	      2.08937      2.10151      4.13064         0.144803     -0.040197     -0.025799
Co	      4.07105      4.14018      4.17386         0.308014      0.094212      0.057304
Cu	      4.08792      6.25964      6.33877        -0.037423      0.011774      0.078575
Ni	      0.06512      4.16979      4.22237         0.012147      0.104788     -0.062964
O	      1.88614      2.08951      2.14348        -0.008699      0.025855     -0.045299
O	      4.09464      4.28487      2.12295        -0.103493     -0.044829      0.437355
O	      3.97480      2.00739      4.19892        -0.087294      0.191563     -0.034534
O	      6.26308      4.29989      4.32557        -0.230800     -0.005507      0.138030
O	      6.20873      2.27306      6.40755        -0.075249      0.029833     -0.053238
O	      8.12737      4.17619      6.18690         0.014569      0.070868      0.117170
O	      2.06498      3.99313      4.20624         0.363689     -0.055820     -0.011754
O	      4.25456      6.29508      4.04978         0.005592     -0.219798      0.003560
O	      4.27733      4.25027      6.22453        -0.164387     -0.090850     -0.436952
O	      6.13654      6.16878      6.37150         0.050426     -0.050673      0.051559
O	      6.19542      4.26643      8.26230        -0.021713     -0.006401     -0.070994
O	      8.29441      6.29725      8.43997        -0.141179      0.007302     -0.033749
O	      2.13039      6.31654      6.28149        -0.102965     -0.154479      0.001762
O	      4.10659      8.27866      6.30234         0.154909      0.042033      0.153891
O	      4.30768      6.28405      8.58128        -0.024904     -0.008311      0.098150
O	      6.23250      8.18444      8.39203         0.003905     -0.050393     -0.005235
O	      6.12680      6.27548     10.35224         0.018870      0.118912      0.054571
O	      8.30354      8.52124     10.58106        -0.239256      0.025150     -0.159201
