# total energy = -210.64602934 eV
 
CRYSTAL
PRIMVEC
-0.071741 6.402171 6.219949 
6.129184 -0.022500 6.170010 
4.067008 4.215785 0.004068 
PRIMCOORD
36 1
Li	      4.01598      4.24647      0.08610        -0.036224      0.014938      0.011949
Li	      8.18079      2.21783      6.21968        -0.007988     -0.001415      0.064562
Li	      4.02741      2.18850      2.03569        -0.017993     -0.023845      0.021115
Li	      8.10982      4.31689      4.28975        -0.075576      0.078528      0.096257
Li	      6.12530      2.05252      8.12257         0.036872      0.018486     -0.059175
Li	      8.17928      6.25468      6.17770         0.019288      0.002113     -0.013609
Li	      6.12858      4.05452      6.21680         0.019693     -0.006656     -0.032444
Li	      4.01372      6.39430      6.17196        -0.001592     -0.004356     -0.025734
Li	      4.08171      4.17942      8.15694         0.000340     -0.022485     -0.025893
Mn	      8.14252      6.40524     10.32225         0.020435     -0.023976     -0.050886
Mn	      6.04825      8.49646      6.21818         0.010926     -0.079782     -0.009373
V	      5.92375      6.33003      8.21438         0.228899      0.084042     -0.191465
Fe	      4.16497      4.06433      4.13163        -0.091630      0.088849      0.056616
Co	      2.07804      0.09291      2.00756        -0.119737      0.004961      0.023199
Co	      6.09544      6.28500      4.12884         0.214180     -0.298990     -0.090561
Co	     10.11114      8.48313     10.33050         0.054293     -0.123113     -0.027261
Ni	      6.14575      2.08621      4.21152        -0.064220      0.047303     -0.114861
Ni	      8.13860      4.18469      8.15015        -0.008088     -0.052523      0.106714
O	      8.13134      4.21815      6.22863        -0.000630     -0.003604     -0.251184
O	      2.02291      2.13144      2.15801         0.053027     -0.141677     -0.024043
O	      4.05170      4.25042      2.20443         0.162842      0.016484     -0.186392
O	      4.07861      2.13919      4.11770        -0.153458     -0.069307      0.047085
O	      6.09509      4.15825      4.09929         0.206846      0.174136     -0.003592
O	      6.12708      2.06791      6.13908         0.018472     -0.018484      0.271818
O	      1.92004      4.37119      4.20316        -0.015270      0.288694      0.112817
O	      3.95635      6.53607      4.11992        -0.386337      0.108216      0.002615
O	      3.91291      4.28662      6.06585        -0.079045      0.033733      0.088913
O	      6.06930      6.53778      6.24072        -0.000610      0.006075      0.112286
O	      6.07758      4.37683      8.37092        -0.011474     -0.035318      0.026518
O	      7.97372      6.31957      8.39280         0.082339      0.029791      0.161613
O	      1.99062      6.22760      6.13047         0.023400     -0.017631     -0.060237
O	      4.13121      8.48784      6.08052         0.019452      0.016194     -0.024990
O	      4.15619      6.34987      8.29468        -0.385999      0.047681     -0.027786
O	      6.07361      8.41571      8.14341        -0.004527      0.052206     -0.072290
O	      6.16229      6.29990     10.24472         0.226450     -0.033541      0.120708
O	      8.17265      8.28291     10.35228         0.062645     -0.155729     -0.033010
