# total energy = -212.15364576 eV
 
CRYSTAL
PRIMVEC
-0.009157 6.114548 6.261261 
6.252021 -0.003283 6.256303 
4.174547 4.078897 -0.009584 
PRIMCOORD
36 1
Li	      4.18676     10.09514      6.31178         0.017615     -0.022778      0.108503
Li	      2.23135      8.12056      6.24722         0.026728      0.086808      0.170884
Li	      2.03144      6.15479      8.18746        -0.066088      0.117632     -0.199983
Li	      8.37900     10.17935     10.46192         0.105253      0.092758      0.051486
Li	      2.11393      4.05703      2.06704         0.114623      0.002700     -0.046254
Li	      4.07424      4.09224      4.16889        -0.120686      0.065580     -0.043408
Li	      4.18724      8.16713      4.25003         0.119255     -0.077565      0.098560
Li	      6.13160      8.22087      6.22118        -0.065535     -0.012442     -0.055051
Li	      4.08127      6.21582      6.25705         0.032230     -0.012390     -0.017830
Mn	      0.09305      1.95350      2.08377        -0.194866      0.173303     -0.115999
Mn	      2.08424      6.04099      4.25054         0.276634     -0.325991      0.076076
V	      6.22031      2.15648      4.17857        -0.713121     -0.236333      0.480934
Fe	      4.20348      4.15142      8.33163         0.058462     -0.324214     -0.674295
Co	      4.12784      2.09614      2.02337        -0.113494     -0.217435     -0.287154
Co	      2.04914      2.12321      4.19135        -0.007110      0.221291     -0.114193
Co	      8.31421      6.07441      6.24028         0.019721      0.135768     -0.069037
Co	      6.26498      6.09607      8.35289         0.170907     -0.103744     -0.110057
Cu	      6.27921      4.08965      6.25878         0.056352      0.232306     -0.108602
O	      2.13995      2.03990      2.14530         0.655814     -0.011336      0.340726
O	      4.19259      4.12729      2.05988         0.079609     -0.636991      0.077918
O	      4.24955      2.03276      4.02289         1.263720      0.044382     -0.324969
O	      6.29480      3.92893      4.05402         0.084706     -0.502928      0.198417
O	      6.11184      1.96958      6.18482         0.442179      0.086828     -1.025084
O	      8.21650      4.23532      6.21904        -0.123519     -0.659875     -0.102300
O	      2.04597      4.14659      4.20393        -0.055026     -0.095198      0.049603
O	      4.05787      6.09613      4.08952        -0.249264      0.093110      0.228539
O	      4.28481      3.89143      6.33898        -0.089784      0.545413      0.042401
O	      6.37845      6.12080      6.34775        -0.105194     -0.128195      0.093882
O	      6.16661      4.09493      8.44017         0.153109      0.160810      0.078043
O	      8.23565      6.15002      8.45418        -0.141410      0.063398      0.296401
O	      2.09107      6.11234      6.08328        -0.040141      0.021502     -0.002396
O	      4.14462      8.16614      6.45005         0.021311      0.042546      0.091572
O	      4.34221      6.08473      8.34316        -0.149232      0.566582      0.076752
O	      6.26111      8.04363      8.41191        -0.290717      0.072714      0.595067
O	      6.34747      6.20312     10.30829        -0.100968      0.270922     -0.017933
O	      8.22115      8.05833     10.39029        -1.072077      0.271062      0.158782
