# total energy = -213.96138941 eV
 
CRYSTAL
PRIMVEC
0.026506 6.261812 6.149958 
6.251640 -0.019530 6.194467 
4.150811 4.188276 0.003948 
PRIMCOORD
36 1
Li	      6.27473     10.31109      8.33081         0.056831     -0.002888     -0.001377
Li	      4.22620      2.07998      2.14137         0.034189     -0.084859     -0.003201
Li	      6.17203      2.13947      4.05909        -0.013112     -0.039178      0.047553
Li	      2.11249      2.16195      4.09263        -0.008153      0.026703     -0.010740
Li	      4.05200      4.19029      4.09261        -0.007641     -0.011229     -0.018378
Li	      4.07198      2.15689      6.09645        -0.023521      0.024218     -0.064331
Li	      0.10007      4.06600      4.05884         0.029958     -0.011780      0.021018
Li	      6.33314      8.23740      6.18586        -0.007783     -0.035138      0.005570
Li	      6.26480      6.36261      8.17938        -0.018842     -0.009162     -0.013172
Mn	      2.12475      8.34476      6.18023         0.034898      0.077962      0.112897
Mn	      4.14151      0.05584      4.09134         0.003898      0.297058     -0.141223
V	      0.08388      6.22211      6.13605        -0.089652     -0.029400      0.045376
Fe	      6.16648      4.31660      6.13711         0.072894     -0.075947     -0.079376
Co	      4.15714      6.28089      2.07428         0.103870     -0.026491      0.083139
Co	      8.29786      4.20627      8.25553         0.021817      0.043176     -0.045881
Co	      4.18551      6.25062      6.11022         0.091705      0.094334      0.046383
Co	      8.26586      8.32655      8.26129        -0.863589     -0.079338     -0.006301
Ni	      2.12533      6.20723      4.09480        -0.130846      0.014212     -0.013388
O	      1.95779      2.27304      1.98707        -0.106990     -0.068422     -0.123482
O	      4.03252      4.30348      1.93449        -0.087607      0.171110      0.131895
O	      4.19133      1.90171      4.05406        -0.068981     -0.192390      0.115840
O	      6.39574      4.15438      4.19359         0.178908     -0.030547     -0.142067
O	      6.36987      2.00284      6.29849         0.094417      0.045413      0.042759
O	      8.35740      4.25532      6.18017        -0.003232     -0.063904     -0.009530
O	      2.06561      4.21562      3.91765        -0.035620     -0.126513     -0.092824
O	      4.12762      6.26198      4.03790         0.108737     -0.004945     -0.168285
O	      4.23589      4.16370      6.19313         0.000508     -0.000683      0.034900
O	      6.19736      6.22150      6.20825        -0.050392      0.103973     -0.041938
O	      6.25982      4.01633      8.15912         0.374018     -0.052073      0.174338
O	      8.46046      6.22381      8.27145         0.143855     -0.314359     -0.190675
O	      2.01504      6.18705      6.16867         0.049133      0.037685      0.131239
O	      4.08689      8.46300      6.26128        -0.174456     -0.084911     -0.081100
O	      4.19914      6.13141      8.33849         0.236670      0.392233      0.143005
O	      6.46678      8.30065      8.24813         0.092685     -0.013336     -0.008092
O	      6.18848      6.27007     10.47460        -0.122052     -0.018677      0.043844
O	      8.37903      8.43252     10.37539         0.083478      0.048092      0.075607
