# total energy = -216.04993626 eV
 
CRYSTAL
PRIMVEC
0.034760 6.434098 6.250324 
6.154694 0.034823 6.250460 
4.112178 4.298600 0.014260 
PRIMCOORD
36 1
Li	      4.12946      8.55601      8.31816        -0.040434      0.015833      0.060712
Li	      4.13966      6.44946      2.21899         0.005690      0.105586      0.166131
Li	      6.04366      6.51519      4.19081        -0.149344      0.108710     -0.127435
Li	      4.08335      4.40896      4.19345        -0.060620      0.105872     -0.105447
Li	      6.07449      4.42307      6.26398         0.153311     -0.029235      0.118420
Li	      4.16462      8.42910      4.15913         0.039014     -0.062066     -0.227002
Li	      4.22885      6.41083      6.22525        -0.120730      0.005139     -0.062401
Li	      4.22778      4.39534      8.29322         0.115261      0.057626      0.211251
Li	      6.09226      6.42340      8.28575        -0.035791     -0.169062      0.154422
Mn	      2.09216      2.16994      0.04201         0.050329     -0.120310      0.048411
Mn	      6.19760      8.62343     10.40608         0.248363     -0.175055     -0.087079
V	      8.18033      6.57255      6.36182        -1.038105      0.879810     -0.114154
Fe	      6.24822     10.72556      8.38377        -0.300231      0.145840     -0.078268
Co	      4.15704     10.70085      6.30322        -0.030043      0.060392     -0.640073
Co	      4.16674      6.47033     10.35619         0.142427     -0.207038     -0.024168
Co	      8.09610      4.29113      8.39604         1.198541     -0.316661     -0.053489
Co	      2.16299      6.39910      4.16105         0.458199     -0.115244     -0.580103
Co	      6.13661      8.54412      6.26470        -0.233609      0.301235     -0.236311
O	      2.05146      2.10902      2.00206        -0.002187     -0.211515     -0.335894
O	      4.04992      4.29560      1.91729        -0.196577     -0.091245      0.257490
O	      4.25170      2.10354      4.33075        -0.008358      0.116123      0.300193
O	      6.14004      4.12811      4.12230        -0.035496      0.087379      0.176533
O	      6.22500      2.20894      6.12321        -0.606774     -0.714168      0.242486
O	      8.34440      4.43008      6.22841        -0.035733      0.420100      0.234752
O	      2.07889      4.46016      4.11644        -0.417378     -0.818024     -0.009338
O	      4.00000      6.41914      4.19029         0.720773      0.173680      0.316572
O	      4.07976      4.14406      6.27458         0.306417     -1.144731      0.211898
O	      6.27343      6.49663      6.20559         1.123613     -0.292129      0.082368
O	      6.30775      4.32439      8.31389        -0.393589      0.099514      0.061371
O	      8.26147      6.37410      8.19250        -0.015594      0.460218     -0.576112
O	      1.97499      6.35502      6.34339        -0.291756     -0.125441      0.122987
O	      4.06333      8.64961      6.20365         0.203350      0.947984      0.245416
O	      4.07285      6.44974      8.37332         0.193622      0.022738     -0.266407
O	      6.18061      8.67064      8.49000        -0.012204     -0.139505     -0.099721
O	      6.31547      6.66100     10.52531        -0.562877      0.157934      0.413267
O	      8.17700      8.57231     10.52959        -0.371479      0.459716      0.198722
