# total energy = -203.42561396 eV
 
CRYSTAL
PRIMVEC
0.048495 6.114712 6.230294 
6.304601 -0.018647 6.297780 
4.185037 4.104006 0.005725 
PRIMCOORD
36 1
Li	     10.35443      4.14181      6.35079        -0.012183      0.054406      0.046517
Li	      6.23163      4.12801      2.16550         0.000364     -0.002751      0.023145
Li	      8.51187     10.15544     10.54867         0.033128     -0.009717      0.074833
Li	      6.31129      1.98250      8.31804        -0.019443      0.030152     -0.028170
Li	      8.41550      4.09444      8.24062        -0.024850      0.015866     -0.034952
Li	      6.47803      4.01593      6.29661         0.083692     -0.033260      0.038344
Li	      6.26889      4.09499     10.40468        -0.017755     -0.007116     -0.060291
Li	      8.34796      6.16737     10.36316        -0.049795     -0.005451     -0.053465
Li	      4.28418      6.12997      6.23655         0.055316     -0.016781     -0.028713
Mn	      4.18547      2.04322      2.11544        -0.179404      0.046528      0.016651
Mn	      6.25570      6.05216      4.18741         0.006625      0.042307     -0.051810
V	      2.12180      4.23792      6.16249        -0.100821      0.001433     -0.139689
Fe	      4.33880      4.08623      8.46273        -0.114119      0.130287     -0.055012
Cu	      6.33797      6.07172      8.41510         0.069699     -0.022806     -0.074990
Ni	      8.32635      2.09715      6.25429         0.133922     -0.154469      0.126424
Ni	      6.32841      2.02726      4.27561        -0.100074      0.061902     -0.044198
Ni	      4.23170      4.12914      4.13859        -0.095207      0.023930      0.111628
Ni	      8.45480      6.03478      6.32241         0.025391     -0.051806     -0.010349
O	      6.33893      6.16625     10.36618        -0.037710     -0.217308      0.042692
O	      2.26292      2.00458      2.18132         0.121464     -0.043224     -0.021363
O	      4.19996      3.91776      2.14351         0.048923     -0.076384     -0.155898
O	      4.12592      2.06418      4.09245        -0.095033     -0.115082     -0.117774
O	      6.25165      4.16887      4.21825         0.148727      0.070748     -0.005969
O	      6.31434      2.02055      6.26664        -0.061476      0.011268      0.162559
O	      8.42687      4.04921      6.29818         0.068260      0.014942     -0.051456
O	      2.10345      4.00134      4.34612        -0.047366     -0.002462      0.020641
O	      4.40047      6.11703      4.13865         0.043249      0.141802      0.038101
O	      3.97314      4.04896      6.35595        -0.031972      0.115469      0.008878
O	      6.35629      6.22706      6.11469        -0.142211     -0.027884      0.045014
O	      6.24935      4.14091      8.34864         0.146070     -0.133683     -0.057209
O	      8.31955      6.20373      8.33467         0.153734     -0.126677      0.171885
O	      2.15436      5.98546      6.21088        -0.003122      0.073291      0.033072
O	      4.38340      8.14999      6.40517         0.018721      0.010048      0.041364
O	      4.32124      6.14203      8.31989        -0.150556      0.077883     -0.035920
O	      6.23279      8.11537      8.23880         0.013936      0.131204      0.009698
O	      8.39634      8.15463     10.40532         0.111875     -0.006604      0.015780
