# total energy = -204.14552581 eV
 
CRYSTAL
PRIMVEC
0.025789 6.121519 6.627603 
6.169815 -0.054451 6.709159 
4.073681 4.094509 0.003471 
PRIMCOORD
36 1
Li	      4.20908      4.11226      0.26350         0.096824     -0.050622     -0.022872
Li	      2.02154      1.88264      0.24784         0.046479     -0.025071     -0.042199
Li	      2.03691      6.14857      8.62760         0.060378     -0.043247     -0.016970
Li	      4.13737      8.15521      8.84161        -0.001844     -0.035595     -0.006090
Li	      2.04602      2.00573      4.27481         0.011428      0.017962      0.054128
Li	      4.08815      4.06509      4.32032        -0.033127      0.021148      0.045025
Li	      2.03088      6.16381      4.81138         0.027031      0.005586      0.056367
Li	      2.07340      4.27541      6.74868        -0.039545      0.000250     -0.063986
Li	      3.93764      6.14482      6.74138        -0.083791      0.036785     -0.016649
Mn	      4.12920      1.97794      6.56783         0.007969      0.011781     -0.128630
Mn	      6.17222      4.02121      6.57031         0.000955      0.028394     -0.129637
V	      4.18315      8.11790      4.77693         0.061276     -0.045598      0.079175
Fe	      4.10484      4.10411      8.91033         0.008649     -0.104011     -0.153102
Cu	      4.12638      6.05155      2.21848         0.041208     -0.044411      0.038715
Cu	      2.09003      4.01555      2.22617         0.092866     -0.013338      0.100483
Cu	      6.18869      6.06673      8.87802        -0.102303      0.101160     -0.118581
Ni	      4.12240      6.12093     10.99339        -0.058651     -0.016901      0.027102
Ni	      6.18565      8.12505     11.02793         0.032988     -0.051391     -0.022040
O	      2.03678      6.14490      6.72022        -0.025354      0.031138      0.050051
O	      4.04154      8.25040      6.49970        -0.019709      0.014858     -0.021368
O	      1.97238      2.08697      2.25798         0.010533      0.071249      0.042456
O	      4.00462      4.14356      2.30310        -0.019909      0.036435      0.014605
O	      4.07920      2.04048      4.66073        -0.031293      0.071118      0.077638
O	      6.11605      4.08101      4.68826        -0.079096      0.052654      0.058029
O	      6.07349      2.07921      6.44993        -0.068006      0.050387      0.094512
O	      8.10277      4.14482      6.47816        -0.084753      0.080871      0.068922
O	      1.85277      4.13538      4.54745        -0.046642      0.001226      0.005089
O	      4.06283      6.37391      4.55069        -0.003543     -0.000149      0.005060
O	      4.22672      3.91996      6.78583         0.070703     -0.002501     -0.016570
O	      6.27333      5.95349      6.83894         0.094512     -0.029861     -0.057501
O	      6.23269      3.87138      8.61735         0.031810     -0.042574     -0.040650
O	      8.33175      6.00337      8.59740         0.035506     -0.010879     -0.000541
O	      4.16746      6.05114      8.88089        -0.014988      0.100801     -0.046812
O	      6.24518      8.11165      8.96397        -0.108575     -0.015932     -0.039432
O	      6.17670      5.95330     10.84790         0.068321     -0.078227      0.095375
O	      8.37316      8.15206     10.88410         0.021694     -0.123496      0.030898
