# total energy = -203.88619239 eV
 
CRYSTAL
PRIMVEC
-0.007707 6.086611 6.402343 
6.171690 0.012735 6.381861 
4.137933 4.067587 -0.015840 
PRIMCOORD
36 1
Li	      4.09345      4.05214      0.11653         0.008000     -0.032890     -0.035875
Li	      6.10809      4.04827      2.11801         0.030158     -0.015671     -0.020162
Li	      4.16082      8.15981      8.46921        -0.044841      0.023564      0.002393
Li	      6.12855      6.11578      4.26157        -0.021226      0.040170      0.066045
Li	      4.20710      4.07240      4.24688        -0.008012     -0.015161      0.048271
Li	      6.15865      4.06936      6.39768         0.010025     -0.016709     -0.064907
Li	      4.15623      8.08028      4.27829         0.021564      0.021759      0.092426
Li	      6.20343      8.11973      6.51799        -0.021921      0.038029      0.010233
Li	      4.08679      4.07952      8.40847        -0.070470     -0.004455      0.040703
Mn	      6.15160      8.15064     10.57098        -0.051525      0.073474      0.073724
Mn	      4.13690      6.05980      6.50470        -0.075497      0.051322     -0.198201
V	      2.15006      5.94357      4.31925        -0.044788     -0.128097      0.164957
Fe	      4.05475      6.10239     10.54959         0.072371     -0.022384      0.026462
Cu	      8.22047      2.08873      6.37321         0.081783      0.019195      0.041763
Cu	      6.20928      2.06814      8.49603         0.060186      0.039155      0.095486
Cu	      2.11303      4.03951      2.08731         0.084757     -0.097102      0.115325
Cu	      6.17865      6.08016      8.48226        -0.053343     -0.099501      0.024339
Ni	      4.10670      2.11005      6.36126        -0.013798     -0.055505     -0.035114
O	      6.31633      3.98056      8.54639         0.185765      0.319439     -0.039058
O	      4.02259      8.01626      6.46680         0.143115     -0.048583     -0.032971
O	      6.17263      8.08265      8.67027         0.011067      0.069747     -0.035693
O	      1.92052      2.07470      1.98528         0.204171      0.264704      0.134836
O	      4.06007      4.23657      2.11330        -0.189053     -0.349248     -0.017941
O	      4.21514      2.01238      4.25965         0.038238      0.050823     -0.123323
O	      6.24608      3.96846      4.15113        -0.154494     -0.038165     -0.033807
O	      6.18729      2.02025      6.09210        -0.033650      0.000084     -0.123447
O	      8.28667      4.06750      6.10810        -0.019778      0.144194      0.048728
O	      2.00848      4.21015      4.40860         0.029134      0.034377     -0.017443
O	      4.05071      6.10430      4.53792         0.118649     -0.000687      0.087404
O	      4.10928      4.14034      6.44115         0.038993      0.111818      0.062898
O	      6.11282      6.11752      6.52554        -0.065548     -0.046052     -0.066856
O	      8.44934      6.10710      8.62575        -0.317827     -0.108599     -0.078290
O	      2.15607      6.14949      6.31202         0.010670     -0.151990      0.038745
O	      4.05115      6.06643      8.49147         0.064307     -0.031224     -0.020831
O	      6.21606      6.16549     10.47610        -0.029832     -0.008904      0.055311
O	      8.12600      8.06547     10.67001         0.002649     -0.030925     -0.286127
