# total energy = -89.63420251 eV
 
CRYSTAL
PRIMVEC
1.962930 3.891485 1.962619 
1.997560 -3.926015 1.997872 
3.998672 0.000255 -3.998727 
PRIMCOORD
16 1
Li	      5.71966     -0.03309      1.84193         0.332696      0.019521      1.162869
Li	      3.85792      1.84088      1.79686        -0.180558      0.622400      0.421060
Li	      3.81480     -0.01652     -0.03673        -0.760816      0.161923     -0.253023
Li	      5.57625      1.84144      0.07775        -0.080027      0.955207     -0.019277
Mn	      7.59400     -0.03300     -0.03128         6.887945     -0.165542      0.385459
Mn	      3.84229     -1.89132      1.84555         0.741894     -4.238383      3.010605
Ni	      5.67231     -1.89094      0.01550         2.125568     -2.481874     -0.580241
Ni	      5.69565     -0.01635     -1.91527         1.176984      0.365703     -3.382841
O	      5.84274     -0.00308     -0.06741        -1.867222      1.369060      1.879611
O	      3.65262      1.81071     -0.03633         1.380040      1.353240     -0.346890
O	      3.84812     -0.02964     -2.06242        -2.441095     -0.153455     -1.315716
O	      3.75748     -0.12298      1.99125         0.165439      2.486497      1.043611
O	      3.81605     -1.84421      0.12751        -1.392488     -0.876513     -3.581586
O	      1.87875      1.92988      1.76672        -1.283278      1.709563      1.666759
O	      1.78932      0.08953      0.02243        -1.912424      0.004875     -0.559190
O	      2.01314     -1.96328      1.90161        -2.892658     -1.132223      0.468791
