# total energy = -210.18713118 eV
 
CRYSTAL
PRIMVEC
-0.018123 6.209652 6.237316 
6.050262 -0.025060 6.245083 
4.056266 4.167383 -0.039184 
PRIMCOORD
36 1
Li	      2.03689      2.12745      0.01875        -0.026088     -0.012566      0.042766
Li	      8.09807      4.18957      4.18879        -0.061992      0.047520      0.059354
Li	      9.94306      6.22104      8.31860         0.080200      0.080131      0.043366
Li	      8.07778      4.24394      8.27496        -0.042842     -0.202615     -0.002282
Li	      1.99837      2.11757      4.15063        -0.016119      0.008857      0.044184
Li	      8.06517      6.19846      6.35740        -0.012116     -0.010571     -0.137726
Li	      2.04232      6.14876      4.03793         0.052086     -0.006731      0.129055
Li	      4.03526      6.18597      6.15370        -0.003089      0.030609     -0.088175
Li	      8.12538      8.13260      8.20503        -0.000553      0.098562     -0.040747
Mn	      4.01818      8.27361      8.28179        -0.201275      0.085309     -0.062003
Mn	      6.08664      4.18435      6.24809        -0.013802     -0.142543     -0.093768
V	      6.17522      8.21931     10.43899         0.059931      0.345109     -0.003610
Fe	      2.03815      6.26363      8.26395        -0.040992     -0.120032      0.182888
Fe	      4.09778      8.19417      4.09954        -0.239062      0.109113      0.030461
Co	      6.07813      6.17448      8.28757         1.611587     -0.187985     -0.064567
Cu	     10.00557      4.15688      6.22655        -0.031808      0.150812     -0.192588
Ni	      3.99470      4.22411      4.15779         0.006303      0.070507      0.070423
Ni	      2.06384      4.09795      6.23114        -0.001769     -0.122392      0.026375
O	      2.15549      1.98454      2.10276         0.110885      0.239211      0.002358
O	      4.10246      4.01794      2.13106        -0.169493      0.047117     -0.228663
O	      4.20561      2.10653      3.96006         0.023151     -0.108167     -0.032142
O	      6.06314      4.06861      4.21483         0.175219     -0.128007     -0.154550
O	      6.03612      2.15841      6.10780        -0.016553     -0.133891      0.041697
O	      8.01545      4.13379      6.19339        -0.010505      0.071930      0.139565
O	      1.96298      4.11749      4.24228        -0.036392      0.143749     -0.293582
O	      4.02360      6.32708      4.08161        -0.094098     -0.265098     -0.020656
O	      4.12782      4.16833      6.18242         0.069313     -0.101976      0.225801
O	      6.07270      6.12474      6.34880        -0.142467      0.383538     -0.966343
O	      6.03567      4.24819      8.26693        -0.288775     -1.190047      0.159373
O	      7.95386      6.20840      8.30668        -0.300661      0.129445      0.017637
O	      1.85041      6.14811      6.35673         0.139480      0.146075     -0.206980
O	      4.04723      8.29047      6.27433        -0.130138     -0.256584      0.148616
O	      4.03588      6.35600      8.29662        -0.173286      0.121927      0.046154
O	      6.00898      8.23999      8.31317        -0.218867      0.818771      0.138255
O	      6.02384      6.23613     10.26209        -0.145001     -0.086102      1.110059
O	      7.97393      8.29800     10.33631         0.089588     -0.052981     -0.070002
