# total energy = -209.88103332 eV
 
CRYSTAL
PRIMVEC
0.027460 6.251834 6.333332 
6.190715 0.028023 6.332583 
4.128968 4.169469 0.016449 
PRIMCOORD
36 1
Li	      6.15538      4.20630      2.16408        -0.003952     -0.061598      0.009602
Li	      4.12164      2.16277      2.12689         0.012887      0.101035      0.007416
Li	      8.24664      4.24621      8.42509         0.068547     -0.007672     -0.017614
Li	      4.11647      4.18796      4.13485        -0.031762     -0.030458     -0.051945
Li	      8.30309      6.22452      6.36156         0.007705     -0.032855     -0.052461
Li	      6.18502      4.19438      6.42825         0.000504      0.025517     -0.062359
Li	      6.23241      4.17499     10.45184        -0.006339      0.014455      0.025752
Li	      4.15357      6.25260      6.35855        -0.045877      0.006440     -0.050904
Li	      6.20362      6.10188      8.46923         0.025418      0.076372      0.022718
Mn	      4.15958      6.27248     10.52217         0.109314     -0.110434      0.142405
Mn	      8.29939      6.26900     10.52197        -0.050657      0.016396      0.201604
V	      6.29483      8.19638      6.43554        -0.338803      0.083048     -0.200006
Fe	      2.11078      2.12233      0.12230         0.226825     -0.162787     -0.091715
Fe	      1.99744      2.10937      4.09709         0.220329     -0.109254      0.020410
Co	      6.12248      2.17097      4.22985         0.154508     -0.043948      0.278294
Cu	      4.13054      4.16326      0.07789         0.085167      0.106600      0.028357
Cu	      4.24993      4.20231      8.42646        -0.245414      0.067640     -0.000614
Ni	      6.18380      2.12932      8.42866         0.059716     -0.211389     -0.040084
O	      6.15989      4.15814      8.39139         0.059468      0.127461     -0.000607
O	      2.07210      2.09925      2.08940         0.084621      0.019757      0.115935
O	      4.12876      4.23417      2.02956        -0.037086     -0.087553      0.168993
O	      4.03681      1.95144      4.20298         0.250566      0.044003     -0.016352
O	      6.31152      4.21751      4.25940         0.021055      0.037810      0.106117
O	      6.27028      2.03959      6.32977        -0.241442      0.307745     -0.651532
O	      8.32856      4.14901      6.22813        -0.273884      0.180285     -0.028104
O	      2.03572      4.12248      4.37466         0.008117      0.033170      0.031883
O	      4.17342      6.22875      4.20673        -0.241350     -0.013093      0.161256
O	      3.91045      4.17489      6.23906         0.215277      0.020265     -0.042392
O	      6.15824      6.41868      6.30271         0.005309     -0.097574     -0.033290
O	      8.25387      6.35252      8.64047        -0.136564      0.014160     -0.173079
O	      2.06553      6.22324      6.18007         0.236286     -0.083376     -0.029476
O	      4.23323      8.41295      6.40040         0.121678     -0.300900      0.038394
O	      4.17360      6.17027      8.65429         0.041306     -0.076710     -0.111116
O	      6.25988      8.38766      8.25730         0.043031     -0.005624      0.376813
O	      6.17060      6.36324     10.60842        -0.094580     -0.075293     -0.110769
O	      8.31082      8.43667     10.76325        -0.309925      0.228357      0.028467
