# total energy = -210.46267243 eV
 
CRYSTAL
PRIMVEC
0.022026 6.555047 6.217531 
6.068599 0.013349 6.226584 
4.027285 4.358150 0.026401 
PRIMCOORD
36 1
Li	      5.96751      4.36791      2.07126         0.061440     -0.063149      0.124701
Li	      8.11287     10.76440     10.40298        -0.063887     -0.033949     -0.066255
Li	      6.12411      8.62361     10.38672        -0.019942      0.040617     -0.042951
Li	      4.05633      4.42785      4.21164         0.018210      0.002321      0.009213
Li	      4.06516      2.25185      6.27515        -0.013624      0.091769     -0.070331
Li	      6.08488      4.43567     10.29501         0.010201     -0.031181     -0.037402
Li	      8.05254      6.71100     10.39388         0.056170      0.033116     -0.027134
Li	      4.02555      6.48947      6.14822         0.058412     -0.027614     -0.061104
Li	      8.10599      8.73780      8.42824        -0.049817     -0.021924     -0.026484
Mn	      6.04493      4.40581      6.19582        -0.191995      0.087272     -0.169931
Mn	      2.08040      4.41424      6.18872         0.047854     -0.061266      0.062395
V	      4.10394      8.53326      8.39810         0.231491     -0.244304      0.097137
Fe	      8.11141      8.68832     12.21999         0.060398      0.058377      0.209747
Fe	     10.00669      6.52522      8.39169         0.167703      0.153694     -0.023652
Co	      6.05079      6.52791      4.22675         0.021740     -0.136395      0.182937
Cu	      6.05632      6.60874     12.31615        -0.082795     -0.000410     -0.066056
Cu	      2.03166      4.37872      2.10735        -0.108282      0.013472      0.154291
Cu	      6.15759      6.49844      8.44091        -0.184640      0.095503     -0.048004
O	      8.08770      6.46259      8.37874        -0.115596      0.127635     -0.029899
O	      6.07931      6.56938     10.38554         0.087395     -0.022822      0.215649
O	      2.14681      2.19815      2.15212        -0.123783     -0.069059      0.187088
O	      3.95359      4.46127      1.92302         0.040064     -0.035507     -0.001829
O	      4.00215      2.29040      3.95001        -0.039444     -0.063995      0.057093
O	      6.05135      4.58548      4.29444         0.009714      0.108424      0.048511
O	      6.08521      2.43243      6.25695        -0.066436     -0.081914      0.019238
O	      8.03752      4.22781      6.17023         0.342404      0.008173      0.016112
O	      2.02891      4.11132      4.32058        -0.014211     -0.043023     -0.224384
O	      4.15538      6.51239      4.07858         0.106680     -0.014424      0.116252
O	      4.04683      4.40415      6.33578        -0.013166      0.008278     -0.050281
O	      6.10008      6.38718      6.25086        -0.049721     -0.013982     -0.423668
O	      6.14463      4.22845      8.17938        -0.023002     -0.031321      0.030987
O	      1.96435      6.66638      6.19590        -0.112036     -0.018821      0.021322
O	      4.05203      8.64403      6.42537        -0.080840      0.024496      0.030963
O	      4.13456      6.76815      8.36356         0.041419      0.008980      0.022903
O	      5.89887      8.90823      8.22693        -0.001083      0.169783      0.018364
O	      8.10931      8.74569     10.38416        -0.006993     -0.016849     -0.255537
