# total energy = -210.04359899 eV
 
CRYSTAL
PRIMVEC
0.000588 6.351186 6.218362 
6.123424 0.014144 6.204457 
4.095164 4.237484 -0.003156 
PRIMCOORD
36 1
Li	     10.15054      4.29635      6.20490        -0.026733      0.008074     -0.011515
Li	      8.16016      4.34785      4.21693        -0.014792      0.016587      0.004500
Li	      6.05677      2.16319      4.23724         0.005139     -0.001912     -0.018138
Li	      6.11171      2.13079      8.16885        -0.023523      0.019803      0.019852
Li	      4.11232      4.17985      4.14719        -0.049016     -0.007420     -0.019500
Li	      4.19742      2.22428      6.09939        -0.017553      0.077053      0.022405
Li	      6.12029      4.15470      6.17678         0.023849      0.013771      0.041061
Li	      4.08442      8.46937      4.19102         0.027249     -0.004680     -0.047285
Li	      6.13627      8.39241      6.25572         0.040831     -0.014478     -0.027283
Mn	      8.12174      2.17355      6.16069        -0.102526      0.220575     -0.007882
Mn	      4.15091      4.28598      8.27717         0.168072     -0.142117     -0.124190
V	      2.03885      6.25241      4.19046        -0.066710     -0.160103     -0.270075
Fe	      5.99976      4.19140      2.16400         0.006264      0.114077     -0.109701
Fe	      6.17199      6.29803      4.25786        -0.135630      0.106230     -0.146684
Co	      8.15686      4.27879      8.19737         0.106296      0.080972     -0.239299
Ni	      4.09712      8.46077      8.29182        -0.043122      0.016670      0.022415
Ni	      4.11719      6.33423      6.19543         0.014717     -0.038684     -0.010011
Ni	      6.14993      6.40384      8.21386         0.064977     -0.106605      0.039269
O	      2.02563      2.01558      1.95959        -0.060106     -0.133767     -0.013019
O	      4.08173      4.16253      2.03112        -0.268626      0.057641      0.025703
O	      3.98468      2.13299      4.09596         0.128784     -0.005580      0.005909
O	      6.09418      4.34601      4.07451        -0.021531     -0.055763      0.064609
O	      6.26098      2.11586      6.17956         0.077946     -0.019698     -0.047820
O	      8.17618      4.04960      6.21601         0.023345     -0.135335      0.459661
O	      2.05682      4.39917      4.08699         0.048052     -0.009966     -0.171383
O	      4.00147      6.35157      4.13825        -0.008207     -0.013698     -0.073017
O	      4.09349      4.28391      6.41881        -0.012096     -0.108314      0.067342
O	      6.14086      6.41377      6.15607         0.062759      0.051833      0.046496
O	      6.08964      4.36126      8.29862        -0.019650     -0.116692      0.175894
O	      8.20955      6.53109      8.39968         0.094759      0.139847      0.015495
O	      2.03874      6.43538      6.07967        -0.086379      0.010159      0.094290
O	      3.96231      8.37642      6.26283        -0.015050      0.108258     -0.062188
O	      4.05218      6.24966      8.30001        -0.108892     -0.012261      0.102344
O	      6.22855      8.53888      8.30072         0.123723      0.052410      0.005240
O	      6.36754      6.37240     10.28995         0.066442      0.008875      0.119486
O	      8.21136      8.34474     10.38191        -0.003061     -0.015760      0.067019
