# total energy = -212.48655697 eV
 
CRYSTAL
PRIMVEC
-0.006703 6.247288 6.081735 
6.316668 -0.001242 6.076788 
4.230090 4.180315 -0.020140 
PRIMCOORD
36 1
Li	      6.34462      4.19964      2.08698        -0.007903     -0.048894      0.048271
Li	      4.18046      2.03199      2.12230         0.021632     -0.044631      0.068176
Li	      4.14446      0.06610      3.97919        -0.058668      0.130509      0.025135
Li	      6.14406      2.19238      3.98951        -0.133854      0.016977     -0.029040
Li	      4.19939      6.22746      2.01500        -0.098542     -0.010907     -0.016359
Li	      2.16001      4.18667      2.02211         0.016838      0.085828     -0.028623
Li	      4.28206      4.12108      3.89937         0.027352     -0.081285     -0.011344
Li	      4.26437      6.21891      6.12654         0.014809      0.062982      0.016155
Li	      6.28079      6.22213      8.17063         0.078995      0.048070     -0.005536
Mn	      4.22298      4.19258      0.03233        -0.146041      0.049787      0.176271
Mn	      2.11582      2.06862      0.05712         0.060156     -0.043675      0.141742
V	      6.35651      8.34953      6.17599         0.132476     -0.072569      0.350152
Fe	      6.28722      6.18372      3.92179         0.370362      0.041299      0.063166
Fe	      4.31630      4.29298      8.17176        -0.235429     -0.520101     -0.025684
Co	      4.21238      2.08565      6.06053        -0.313603      0.232647     -0.366107
Co	      0.04484      4.17286      4.04491         0.015795      0.007929     -0.079679
Cu	      2.18945      6.21273      3.94240         0.054707      0.031363     -0.162709
Ni	      6.32142      4.21426      6.08530         0.044223     -0.145899      0.110486
O	      2.11232      2.07833      1.99270        -0.009555      0.009256     -0.357275
O	      4.19523      4.15661      1.86782         0.003738     -0.008109     -0.161761
O	      4.10925      2.09615      4.14380        -0.124328     -0.015087      0.107686
O	      6.27641      4.25969      4.13482        -0.055736     -0.131163     -0.322022
O	      6.28865      1.95803      5.99992        -0.421466      0.041445      0.046508
O	      8.55307      4.10402      6.03947         0.033241      0.368551     -0.027354
O	      1.99584      4.13244      4.15543        -0.118182      0.000966     -0.083929
O	      4.22380      6.41020      4.04612        -0.003460      0.054163      0.036089
O	      4.11756      4.17492      6.08694        -0.070333     -0.694891      0.000053
O	      6.35545      6.33956      5.99365         0.723805      0.116283      0.110278
O	      6.28367      4.18089      8.12898         0.094268      0.003390      0.237923
O	      8.42727      6.37164      7.90376         0.079980      0.205422      0.133247
O	      1.94368      6.21214      6.15566         0.000773      0.117975      0.024825
O	      4.32411      8.44904      5.97186        -0.163914      0.052718      0.021087
O	      4.20061      6.14560      8.11212         0.007947      0.244796     -0.071100
O	      6.33380      8.30949      7.96508         0.076747      0.024227     -0.209015
O	      6.48020      6.11583     10.21114        -0.001092     -0.083366      0.062822
O	      8.61809      8.29266     10.19224         0.104263     -0.046008      0.177463
