# total energy = -213.06724962 eV
 
CRYSTAL
PRIMVEC
-0.015719 6.316468 6.209581 
6.186323 -0.005104 6.199245 
4.130124 4.210090 -0.009402 
PRIMCOORD
36 1
Li	      4.21325      6.17654     10.28443         0.025170     -0.033382     -0.009428
Li	      2.02708      4.22924      2.18693        -0.020853      0.026487      0.021168
Li	      6.14854      6.39576      4.18349        -0.009019      0.067714      0.017105
Li	      6.19830      4.31808     10.35664         0.031495      0.025106     -0.035502
Li	      8.16474      6.32974     10.41325         0.036965      0.010720      0.019829
Li	      2.00815      4.23359      6.15760        -0.034134      0.014990      0.038401
Li	      4.08091      6.37120      6.21503        -0.005676      0.009102      0.025276
Li	      8.26522      8.46196      8.35754         0.081533     -0.047874     -0.000020
Li	      6.10761      6.30046      8.38197        -0.036014     -0.012269     -0.032248
Mn	      4.09903      8.35675      8.27556        -0.123786     -0.092271     -0.103329
Mn	      6.21636      4.22276      6.15500        -0.001406     -0.079497      0.174578
V	     10.28683      6.39340      8.34114        -0.077838      0.032289     -0.096476
Fe	      3.98244      4.24584      4.14867         0.068939      0.010989      0.036926
Fe	      8.19549      6.26089      6.11672         0.145641      0.026142      0.079527
Co	      6.21643      6.25731     12.29474         0.050527     -0.096696     -0.048500
Co	      2.07780      8.40070      6.16457        -0.046083     -0.002750     -0.155080
Ni	      6.26349      8.35394     10.26307         0.019672     -0.056463      0.025949
Ni	      6.20107     10.50146      8.27183        -0.016272      0.026747     -0.008455
O	      2.03152      2.08851      1.95858         0.102485      0.029878     -0.036356
O	      4.14041      4.16060      2.06658        -0.122968     -0.031250     -0.004209
O	      4.12878      2.15883      4.07625        -0.073705     -0.006492     -0.112675
O	      6.11387      4.15803      4.21558        -0.004890      0.077650      0.093185
O	      6.26327      2.21284      6.21047         0.005976      0.049767      0.079572
O	      8.19956      4.19818      6.16501        -0.057644     -0.002059     -0.031018
O	      2.12077      4.21467      4.19614        -0.159633      0.002020      0.001168
O	      4.18518      6.25874      3.97302         0.041496      0.040505      0.095942
O	      4.22800      4.09516      6.16467         0.055733      0.028711      0.057533
O	      6.28059      6.13125      6.22025        -0.185935     -0.105579     -0.015496
O	      6.19796      4.07603      8.14084         0.003894      0.048336     -0.100836
O	      8.48644      6.27897      8.10646        -0.046408     -0.017674      0.014195
O	      2.00260      6.50250      6.25816         0.040206      0.030519     -0.088376
O	      3.98343      8.41089      6.35116         0.043015      0.063563      0.092436
O	      4.06426      6.48272      8.28792         0.202301      0.157939     -0.002921
O	      5.99333      8.44568      8.22546        -0.040080     -0.102557     -0.103360
O	      6.18317      6.35311     10.37464        -0.043601     -0.098097      0.004747
O	      8.26146      8.39917     10.45361         0.150895      0.005731      0.106747
