# total energy = -207.86930083 eV
 
CRYSTAL
PRIMVEC
0.005241 6.146359 6.358307 
6.287290 0.027516 6.336611 
4.210722 4.102953 -0.000945 
PRIMCOORD
36 1
Li	     10.43745      4.16699      6.40520        -0.012634      0.004989     -0.004819
Li	      8.40548      4.16292      4.29550         0.043963      0.002811     -0.011377
Li	     10.33472      6.21792      8.53090         0.007491     -0.011745      0.024533
Li	      8.33928      4.29037      8.42154        -0.080392     -0.065953      0.019620
Li	      6.30920      6.15534      4.31712        -0.026229      0.015089     -0.016865
Li	      8.38710      6.12243      6.54235         0.019826     -0.025908      0.046469
Li	      4.25311      6.11739      6.27936         0.041449      0.019462      0.021931
Li	      4.32337      3.97448      8.36650         0.067991      0.053355      0.021724
Li	      6.48318      6.05564      8.44579        -0.011504     -0.045876     -0.004149
Mn	      8.37516      2.12559      6.34131         0.021069      0.064902     -0.093591
Mn	     10.47497      8.20714     10.54808        -0.060705      0.081853      0.026859
V	      2.24193      6.20469      8.47239         0.202286      0.119210      0.137499
Fe	      6.22576      8.10368     10.57947         0.222689      0.049380     -0.007422
Fe	      6.43982      8.03018      6.34549        -0.114264      0.099674     -0.045907
Cu	      4.20589      4.14871      4.19539        -0.035910      0.121311      0.067172
Cu	      6.27723      4.17604      6.42707        -0.041025      0.091398      0.082456
Ni	      4.21639      2.11559      2.07753        -0.049119     -0.110477     -0.114288
Ni	      8.39307      6.15678     10.44756        -0.044352     -0.040649      0.105818
O	      8.40248      6.19049      8.47684         0.007057     -0.026421     -0.144787
O	      2.12747      1.95165      1.96172        -0.042096     -0.022595     -0.063896
O	      4.38896      4.12185      2.21620         0.020895      0.112698      0.063938
O	      4.30113      2.10836      4.12586        -0.121295      0.020689      0.045789
O	      6.42946      4.04021      3.93169         0.068536      0.048336     -0.141454
O	      6.42027      2.17980      6.20405         0.072262     -0.063869      0.015969
O	      8.29215      4.00234      6.38178         0.042325     -0.092562     -0.007446
O	      1.89917      4.10149      4.38827        -0.012123     -0.141792      0.046501
O	      4.15292      6.23512      4.26894         0.122385     -0.243475      0.038989
O	      4.18882      4.10302      6.18720         0.082232      0.033850     -0.073212
O	      6.29773      6.14914      6.35714         0.001555     -0.083231      0.018203
O	      6.27357      4.12655      8.71366        -0.000822      0.009983     -0.118820
O	      2.02686      6.21606      6.49683        -0.006136     -0.062761     -0.007493
O	      4.06911      8.23283      6.30832        -0.084685      0.023288      0.038484
O	      4.01807      6.17108      8.37614        -0.098602     -0.042625     -0.020204
O	      6.29864      8.33246      8.35883         0.080084      0.004152     -0.014658
O	      6.29624      6.17523     10.59011        -0.159819     -0.007625      0.009382
O	      8.43584      8.20694     10.75855        -0.122381      0.111136      0.059052
