# total energy = -207.09754488 eV
 
CRYSTAL
PRIMVEC
0.015678 6.330968 6.247832 
6.264870 0.052329 6.210641 
4.217006 4.236173 -0.005091 
PRIMCOORD
36 1
Li	      2.12388      0.12128      2.12491        -0.043104      0.036201      0.040245
Li	      4.07621      2.05883      2.11097        -0.087573      0.031263     -0.056992
Li	      2.06341      4.18424      2.14256         0.036258      0.000559     -0.057577
Li	      2.11776      2.18331      4.08869         0.022427      0.013762     -0.006256
Li	      4.02367      4.19774      4.17945        -0.100554     -0.106436     -0.032459
Li	      8.30798      6.44357      6.25885         0.031869     -0.044331     -0.021002
Li	      6.23314      4.38494      6.16781         0.048255     -0.036180     -0.051864
Li	      2.20598      6.24054      4.04316         0.014428     -0.021756      0.054566
Li	      2.16132      4.13652      6.19211         0.016533      0.014376      0.000755
Mn	      4.15873      0.05257      4.13102         0.021069      0.155270      0.165130
Mn	      0.11212      4.22586      4.16854        -0.008842      0.054580      0.280942
V	      4.35171      4.24203      0.17016        -0.369392     -0.186387     -0.194778
Fe	      6.21946      2.22703      4.06849         0.043997     -0.163580      0.336693
Fe	      4.29777      6.20183      6.27007        -0.215841      0.424273      0.035963
Cu	      2.10673      2.18422      0.10088         0.063859      0.013152      0.040179
Cu	      8.38373      8.42494      8.23610        -0.063696      0.082421     -0.044819
Cu	      6.39470      6.36993      8.25139         0.053676     -0.039814      0.030604
Ni	      6.29278      2.21524      8.31370         0.044719     -0.110558      0.040749
O	      8.53427      6.49819      8.29204         0.053517     -0.116156      0.016007
O	      6.36152      8.37015      8.42284         0.079479      0.128845     -0.324099
O	      2.02084      2.13875      1.99233         0.050625     -0.040201      0.139919
O	      4.18147      4.23420      1.91207         0.075076      0.003949      0.210799
O	      4.25373      1.97753      4.08934        -0.121938     -0.028221     -0.051120
O	      6.47745      4.16090      4.19171        -0.015741      0.213597     -0.109696
O	      6.26061      1.91436      6.10100        -0.124072      0.044106      0.024997
O	      8.58357      4.30904      6.04572         0.048349      0.131048     -0.098642
O	      1.94258      4.24493      4.12751        -0.007377      0.041107     -0.010309
O	      4.20681      6.57786      4.27782        -0.003013     -0.025558     -0.092626
O	      4.18660      4.35825      6.08569        -0.000506     -0.339806      0.021959
O	      6.21454      6.35886      6.32782         0.200174      0.034597     -0.122137
O	      6.23456      4.30380      8.47547        -0.080390     -0.000121     -0.085116
O	      1.92635      6.31886      6.21226         0.343577     -0.003179      0.017680
O	      4.28062      8.61731      6.12991         0.096490     -0.070816     -0.039572
O	      4.10110      6.24796      8.35749        -0.125529      0.011873      0.071575
O	      6.19461      6.30907     10.36307        -0.037192      0.008272      0.019124
O	      8.46138      8.66400     10.58078         0.060384     -0.110152     -0.148823
