# total energy = -90.43105960 eV
 
CRYSTAL
PRIMVEC
1.973207 3.911860 1.972894 
2.008018 -3.946570 2.008332 
4.019608 0.000256 -4.019663 
PRIMCOORD
16 1
Li	      5.77971     -0.03344      1.86127         0.286200      0.010840      1.011971
Li	      3.89842      1.86021      1.81572        -0.169080      0.544055      0.350394
Li	      3.85485     -0.01670     -0.03712        -0.674677      0.137841     -0.219440
Li	      5.63479      1.86078      0.07856        -0.087056      0.821027     -0.013137
Mn	      7.67372     -0.03334     -0.03160         6.037528     -0.148546      0.326814
Mn	      3.88263     -1.91117      1.86493         0.597149     -3.687273      2.537308
Ni	      5.73186     -1.91079      0.01566         1.799839     -2.115042     -0.501349
Ni	      5.75544     -0.01653     -1.93538         0.979779      0.310962     -2.929171
O	      5.90409     -0.00311     -0.06812        -1.525305      1.166194      1.627595
O	      3.69097      1.82972     -0.03671         1.203193      1.177454     -0.271038
O	      3.88852     -0.02995     -2.08407        -2.102949     -0.143315     -1.166790
O	      3.79693     -0.12427      2.01216         0.164083      2.096747      0.913232
O	      3.85611     -1.86357      0.12885        -1.167087     -0.738058     -3.012668
O	      1.89847      1.95014      1.78527        -1.124041      1.531384      1.446049
O	      1.80810      0.09047      0.02266        -1.733825      0.032598     -0.508368
O	      2.03427     -1.98389      1.92157        -2.483751     -0.996868      0.408597
