# total energy = -196.45355729 eV
 
CRYSTAL
PRIMVEC
0.062777 6.122437 6.155409 
6.289664 0.026107 6.191866 
4.206129 4.118675 0.004587 
PRIMCOORD
36 1
Li	      2.08280      2.05033      0.07800         0.061508     -0.035856      0.059380
Li	      2.26721      6.13786      8.25493         0.025786      0.017874     -0.064403
Li	      4.26854      8.10375      8.28144        -0.020400     -0.018665      0.139014
Li	      8.33804      4.04569      8.20889         0.017618     -0.036663     -0.006017
Li	      4.26597      4.07707      4.19333        -0.060703     -0.056271     -0.062275
Li	      6.27666      4.13296     10.15747        -0.025173     -0.007520      0.003812
Li	      6.41300      8.16873      6.32884        -0.001278      0.065709      0.076313
Li	      4.18365      4.16844      8.18249        -0.070249      0.060757      0.058749
Li	      6.23725      6.20784      8.15758        -0.063055      0.035384      0.060027
V	      4.32296     10.05673      6.28821         0.123790     -0.079821     -0.024181
V	      8.46419      6.09314     10.13383         0.011058      0.015337     -0.206706
Co	      4.22206      2.08169      6.15842        -0.153015      0.599206      0.681547
Cu	      6.35829      8.23235     10.22112        -0.232493     -0.104823     -0.169140
Cu	      6.27584      4.15331      6.21489         0.118659      0.020516     -0.041782
Ni	      6.40172      2.13402      8.21834        -0.097262     -0.140657      0.203221
Ni	      4.27261      6.08857     10.19171         0.098000      0.062519     -0.124679
Ni	      2.15076      2.08726      4.08459         0.160955      0.213220     -0.084957
Ni	      4.21169      6.11069      6.27057        -0.129762      0.052181     -0.177488
O	      6.31098      8.23038      8.32440         0.037217      0.055901     -0.154788
O	      2.06125      2.06119      2.15357         0.155530     -0.037190     -0.176883
O	      4.23265      4.17860      1.86524        -0.013870     -0.079247      0.076226
O	      4.23683      2.05056      4.26952         0.033506     -0.015552     -1.566511
O	      6.36222      4.10591      4.29521        -0.147999      0.047577      0.234810
O	      6.15580      2.04051      6.15015         0.214928      0.069357      0.020523
O	      8.65770      4.25328      6.08554         0.115521     -0.408078      0.298807
O	      2.10249      4.28032      4.08848        -0.023559     -0.006249     -0.043800
O	      4.04683      6.18728      4.21670         0.014206     -0.017816     -0.113649
O	      4.18012      4.01058      6.17954        -0.196026     -0.162803      0.150844
O	      6.45701      6.13259      6.08998        -0.060997     -0.048658      0.225466
O	      6.34820      4.08556      8.07568        -0.036994      0.254691     -0.137025
O	      8.46994      6.15666      8.32338        -0.005507     -0.053198      0.651503
O	      1.98086      6.14909      6.04194         0.036017     -0.010096      0.077600
O	      4.22687      8.31307      6.16442         0.042969     -0.081537     -0.042760
O	      4.25843      6.15474      8.19423        -0.013314     -0.054389      0.208110
O	      6.48284      6.18827     10.37786        -0.068787     -0.058363     -0.012406
O	      8.36988      8.07523     10.30425         0.153175     -0.056778     -0.016504
