# total energy = -195.96122907 eV
 
CRYSTAL
PRIMVEC
0.052211 6.167429 6.541981 
6.140501 0.016296 6.577726 
4.087097 4.129073 0.016659 
PRIMCOORD
36 1
Li	      6.32610      6.25103     12.93174        -0.013683     -0.017181     -0.018086
Li	      8.19573      8.19791     12.99753         0.067890      0.025619     -0.041367
Li	      6.09009      2.14013      8.65283         0.010832      0.035505      0.022628
Li	      6.16614      6.15227      4.44414        -0.036875     -0.056386      0.001344
Li	      6.12947      4.23405     10.79617         0.000545     -0.047318     -0.087430
Li	      8.13361      6.29647     11.09478         0.078077      0.013456      0.064284
Li	      2.10841      4.21290      6.62616        -0.027558      0.038520      0.008924
Li	      8.28628      8.05568      8.95491         0.006138      0.029587      0.028304
Li	      6.25401      6.11174      8.82003        -0.047696     -0.015727      0.055689
V	      4.16322      8.19760      8.55142         0.137656     -0.195140     -0.268410
V	      3.96367      4.21580      4.43295         0.244228      0.326024      0.135592
Co	      4.11563      6.17885      6.61449         0.119289     -0.098007      0.008432
Cu	      8.11785      4.16007      8.75491         0.000825      0.099015     -0.076212
Cu	      8.19268      6.14422      6.63301        -0.001073      0.039385      0.207644
Cu	      6.18342      4.10046      6.66215        -0.012334     -0.047082      0.017781
Ni	      2.00453      0.06350      2.15730         0.041710     -0.026633     -0.043283
Ni	      8.26658     10.28059     10.96484        -0.038592     -0.084357     -0.152525
Ni	      6.20939      8.23098     10.92531         0.054001      0.074520     -0.025928
O	      6.18385      6.32822     10.94459         0.053094     -0.177609      0.025907
O	      2.24666      2.13117      2.29323        -0.011133      0.154970      0.052549
O	      4.04162      4.00534      2.43396        -0.148129      0.002550     -0.067967
O	      4.22227      2.13359      4.34359        -0.220618      0.073891     -0.045004
O	      6.05072      3.99960      4.25124        -0.081077      0.154588     -0.084660
O	      6.09126      2.21330      6.54306         0.082710     -0.127214      0.043230
O	      8.16486      4.19028      6.43719        -0.180653     -0.229680     -0.109215
O	      2.22794      4.07101      4.48921        -0.137181     -0.039972     -0.022889
O	      4.13967      5.97672      4.40093        -0.037880     -0.071387      0.063155
O	      4.14030      4.04754      6.33022         0.086639      0.290015      0.057145
O	      6.15018      5.98283      6.52233        -0.603787      0.231291     -0.073533
O	      6.19627      4.09464      8.74608        -0.000850      0.036162      0.312490
O	      8.20512      6.10005      8.58248        -0.006589     -0.106025      0.222686
O	      2.16840      6.20456      6.68188         0.404856      0.069679     -0.169892
O	      4.16290      8.29106      6.78153         0.002004     -0.073724      0.005539
O	      4.11698      6.37586      8.79361         0.098011     -0.090735      0.056023
O	      5.99789      8.29896      8.76091        -0.095414     -0.123909     -0.080705
O	      8.10527      8.28060     10.91269         0.212617     -0.066690     -0.022243
