# total energy = -194.75576686 eV
 
CRYSTAL
PRIMVEC
-0.005578 6.058799 6.261787 
6.199392 -0.066259 6.323392 
4.094519 4.041172 -0.006092 
PRIMCOORD
36 1
Li	      6.14367     -0.02623      6.26749        -0.063420     -0.034887     -0.151483
Li	      8.27744     10.00826     10.53726         0.064608     -0.045819      0.085168
Li	      8.15066      4.04410      8.31351        -0.144260      0.029625     -0.142288
Li	      4.12785      4.00140      4.29032         0.035895     -0.002861      0.133852
Li	      4.19246      2.01086      6.36012        -0.020844      0.007816      0.132814
Li	      6.16497      3.93041      6.38355        -0.057832      0.036311      0.112318
Li	      6.11937      4.04109     10.42187        -0.117782      0.038482     -0.211363
Li	      4.06284      5.93369      6.32903         0.073117     -0.104588      0.018963
Li	      4.20288      3.96585      8.30602         0.086595     -0.104621     -0.060338
V	      4.11400      8.09848      8.31961         0.138964      0.022501      0.290871
V	      6.06302      6.06722      4.34535        -0.004463     -0.090537      0.169364
Co	      2.09554      6.06385      8.35764         0.072006     -0.094466      0.094697
Ni	      8.20640      1.98981      6.26673        -0.357378      0.757736     -0.109989
Ni	      8.22644      5.98850     10.46237         0.107814     -0.070243      0.011373
Ni	      6.19262      1.97782      4.29678        -0.111207      0.120221     -0.132565
Ni	      6.11311      1.99616      8.32539        -0.000552     -0.035631      0.140524
Ni	      2.13619      4.07386      6.25480        -0.106522     -0.119994      0.017799
Ni	      6.23172      5.89281      8.44134        -0.021641      0.091165     -0.064076
O	      2.14536      1.93332      2.13034        -0.011205      0.043894     -0.026319
O	      4.25703      3.94089      2.10433         0.012392      0.031091     -0.043631
O	      3.98208      2.01410      4.00246        -0.008683      0.023403      0.016991
O	      6.18225      4.15120      4.02215        -0.007895      0.014350     -0.091730
O	      6.23928      1.96142      6.31510         0.222438     -0.138256     -0.018149
O	      8.24770      3.86140      6.30085         0.075011     -0.287947      0.106646
O	      2.06205      3.86615      4.20183         0.014841      0.068264     -0.125050
O	      4.26488      6.04386      4.10909         0.009044     -0.051799      0.038980
O	      4.03353      4.00797      6.29683         0.344003     -0.068045     -0.005838
O	      6.16744      6.01011      6.11738        -0.033180     -0.072058     -0.151572
O	      6.16845      3.96614      8.38490        -0.018464     -0.048960      0.024165
O	      8.22817      5.96854      8.46347         0.021045      0.007966     -0.113732
O	      2.08163      6.08998      6.39308        -0.015613      0.170361      0.166368
O	      4.11973      8.07103      6.49103        -0.117380     -0.061807     -0.121326
O	      4.09057      6.20438      8.37396        -0.097543     -0.001609     -0.025396
O	      6.03265      8.13612      8.42313         0.013820      0.092346     -0.031363
O	      6.22301      6.04567     10.41601        -0.108115     -0.137640      0.181398
O	      8.20489      7.97491     10.58384         0.132387      0.016236     -0.116083
