# total energy = -197.60981930 eV
 
CRYSTAL
PRIMVEC
-0.061166 6.184764 6.231109 
6.240404 -0.068108 6.238736 
4.109847 4.077630 0.004817 
PRIMCOORD
36 1
Li	      8.19254      8.17946     12.33619        -0.050040      0.026916     -0.144399
Li	      8.23055     10.11946     10.45416         0.044469     -0.048934      0.038885
Li	      6.24873      8.17124     10.45874         0.076274     -0.030542      0.074538
Li	      6.15009      2.05777      8.28627        -0.066811      0.082362     -0.090176
Li	      8.17793      4.12968      8.38013        -0.126262      0.083192     -0.086864
Li	      4.07436      4.09707      4.16692         0.103798      0.016832      0.030482
Li	      6.22711      4.14016     10.29866        -0.095593      0.031801     -0.087452
Li	      8.18231      6.05777     10.32256        -0.070089      0.095901     -0.066971
Li	      6.26335      6.03491      8.44835         0.031586     -0.072550      0.075228
V	      4.11712      2.04097      2.22036        -0.138341     -0.078743      0.192973
V	      4.00840      6.17447      6.10984         0.153195     -0.044513     -0.092021
Co	      8.25552      6.10116      6.30608         0.284303     -0.109248      0.336042
Co	      6.23753      4.04911      6.26109         0.174834     -0.223991      0.023033
Cu	      6.18757      4.03663      2.16446         0.019247      0.063507      0.173345
Cu	      2.02240      4.10882      6.15605         0.019677     -0.100018      0.143552
Ni	      6.18118      6.13292     12.36086        -0.160595      0.078637      0.084773
Ni	      6.16057      6.12321      4.18171         0.035233     -0.157894     -0.120741
Ni	      8.30393      8.09414      8.41890         0.051408      0.064101      0.064162
O	      6.16367      6.11522     10.44397         0.026939     -0.000758     -0.206796
O	      8.24615      8.15403     10.34735        -0.033983     -0.013467      0.142876
O	      2.22952      1.94888      2.11541         0.054099     -0.016904     -0.028882
O	      4.16788      3.88996      1.98799        -0.023602     -0.027932      0.047352
O	      4.16324      2.01615      4.01287        -0.025920     -0.000569     -0.512982
O	      6.17395      4.11584      4.36834         0.029309     -0.033604     -0.117337
O	      6.05229      2.07078      6.24490         0.359683     -0.274458     -0.272444
O	      8.15964      4.21143      6.26551         0.283703      0.067470      0.037789
O	      2.07317      4.02037      4.24659         0.029475      0.150277      0.136012
O	      4.12710      6.13073      4.34047        -0.068316      0.004337      0.101534
O	      4.27835      4.07608      6.30064        -0.464892      0.171216     -0.094689
O	      6.21243      6.02809      6.25058        -0.496209      0.521713     -0.090961
O	      6.18817      4.03538      8.14359         0.160576      0.023479      0.100618
O	      8.24443      6.12375      8.15907        -0.118871     -0.118655      0.553671
O	      2.11630      6.12749      6.17239        -0.084560     -0.189672      0.027889
O	      4.00244      8.11155      6.37110         0.099323      0.021185     -0.019989
O	      4.07525      6.25457      8.18457         0.025523      0.055909     -0.072205
O	      6.02334      8.23715      8.20698        -0.038572     -0.016383     -0.279846
