# total energy = -196.92246762 eV
 
CRYSTAL
PRIMVEC
-0.031468 6.181959 6.257826 
6.210239 -0.018791 6.244938 
4.130808 4.103635 -0.003200 
PRIMCOORD
36 1
Li	      6.21510      6.18262     12.34405         0.043964     -0.080059     -0.016148
Li	      8.31050     10.17714     10.39454         0.014730      0.051141     -0.125571
Li	      6.27772      8.14726     10.40929        -0.019386      0.007701     -0.024412
Li	      6.28732      4.00270      6.34114        -0.167402      0.039546     -0.184919
Li	      6.11408      4.17546     10.35939        -0.070086      0.009973      0.154738
Li	      8.17272      6.23623     10.47737        -0.000873      0.062709      0.057611
Li	      6.07594      8.34271      6.28540        -0.028017     -0.044003     -0.003587
Li	      4.00090      6.25993      6.31857         0.091639      0.030470      0.004839
Li	      8.28504      8.20624      8.45661        -0.077992      0.071511      0.076844
V	      6.16449      6.14680      4.31308         0.333951      0.049164     -0.081069
V	      4.13578      4.13334      4.29813        -0.037429     -0.410162      0.121636
Co	      4.10568      8.20406      8.29282         0.052529      0.011306      0.505972
Co	      8.25894      4.07669      8.31681        -0.630662      0.647520     -0.546009
Ni	      8.21976      8.21593     12.42246         0.318092     -0.105715     -0.230473
Ni	      2.06582      6.12306      8.25805         0.150199     -0.081651      0.160243
Ni	      6.15420      2.11122      8.27532         0.223120     -0.471213      0.258911
Ni	      4.24438      1.93425      6.22032        -0.127242      0.246551     -0.513081
Ni	      6.19724      6.14924      8.42546        -0.427481      0.454499     -0.177901
O	      6.17244      6.14534     10.37138         0.170609      0.058793     -0.027568
O	      8.26875      8.23491     10.43235        -0.041821     -0.145589     -0.147634
O	      2.13336      2.12112      2.19717        -0.044551     -0.473137      0.039141
O	      4.04877      3.97452      2.21866         0.443858      0.497175      0.133660
O	      4.04654      2.11542      4.07310        -0.015504     -0.057065      0.173739
O	      6.08089      4.21238      4.05191         0.066847     -0.040760      0.062280
O	      6.25077      2.02695      6.30506         0.091803      0.044340     -0.104265
O	      8.28043      4.01009      6.41063         0.151055     -0.165639     -0.400784
O	      2.14725      4.02771      4.07081        -0.160816      0.105407      0.402638
O	      4.21903      6.07252      4.09072        -0.006422      0.123979     -0.003441
O	      4.12194      4.04416      6.07051         0.043842      0.061949      0.113510
O	      6.24488      6.15929      6.07680        -0.002756     -0.137504      0.398460
O	      6.33913      4.10673      8.32985        -0.228646      0.033484      0.148964
O	      8.26983      6.00214      8.21973        -0.012205      0.390670      0.363865
O	      2.03633      6.32126      6.29055        -0.051126     -0.201948      0.105739
O	      3.99087      8.26395      6.48374        -0.122882      0.000805     -0.615386
O	      4.10958      6.36080      8.33405         0.021495     -0.506267     -0.109382
O	      5.99696      8.21597      8.26625         0.055567     -0.077983      0.028840
