# total energy = -202.17329009 eV
 
CRYSTAL
PRIMVEC
0.022910 6.078713 6.188899 
6.237979 -0.000964 6.211828 
4.177767 4.086129 -0.019082 
PRIMCOORD
36 1
Li	      2.00660      2.02576      0.11329        -0.000110     -0.003582     -0.011585
Li	      6.31016      4.09478      2.11623         0.053541      0.030416     -0.113704
Li	      8.28253     10.14110     10.24659         0.152197     -0.082106     -0.001634
Li	      6.28081      2.13337      4.10506         0.045029     -0.144305      0.026272
Li	      2.06693      4.03147      2.05310        -0.113561      0.066682     -0.075296
Li	      6.34266      4.10428      6.10173         0.022771      0.024231      0.050493
Li	      8.29743      6.06332     10.33916        -0.060377      0.059289     -0.012952
Li	      4.10417      6.04751      6.25175         0.011887     -0.010318      0.006720
Li	      6.24459      6.11462      8.14358         0.012136     -0.157205      0.054230
V	      4.11528      4.05766      0.10078        -0.246860     -0.074234     -0.192560
V	     10.28117      8.12030     10.30370         0.752944      0.148106      0.578242
Co	      4.23623      4.08370      4.16045         0.332214      0.433324     -0.501262
Co	      4.23610      2.08706      6.16529         0.072813     -0.084272      0.085385
Co	      4.10881      4.11744      8.23901         0.806205     -0.384088      0.011775
Cu	      2.11550      4.04619      6.20877        -0.044249      0.115884     -0.025709
Ni	      0.06866      2.03778      2.08380        -0.194263      0.173586     -0.025883
Ni	      4.15066      8.00547      8.28926        -0.087002     -0.077114     -0.167841
Ni	      2.14369      1.98871      4.11623        -0.093075      0.062262      0.028160
O	      2.07466      2.04279      2.10976         0.157332      0.001714     -0.102161
O	      4.11102      4.04094      2.00121        -0.082434     -0.105368     -0.537875
O	      4.22030      2.17716      4.17148         0.138985     -0.336899      0.082925
O	      6.12490      4.08903      4.10458        -0.161090     -0.179052     -0.147642
O	      6.20468      1.84734      6.20223         0.025056      0.132264     -0.154531
O	      8.46323      4.21876      6.18875        -0.134403      0.087665     -0.009597
O	      2.14710      4.06117      4.29274         0.128845      0.079509     -0.124869
O	      4.20155      6.16640      4.17353        -0.025111     -0.118656      0.091631
O	      4.38450      3.98813      6.03797        -0.111654     -0.081040      2.218845
O	      6.53506      6.25555      6.13221         0.074472     -0.049443      0.107376
O	      6.24565      4.07902      8.46754        -0.608970      0.182434     -0.940271
O	      8.45214      6.29154      8.06211        -0.247634      0.082742      0.025566
O	      1.82158      5.97775      6.20228         0.279646     -0.048089      0.108896
O	      3.98327      8.22803      6.15407        -0.177379     -0.008696      0.211428
O	      4.20352      5.99458      8.20335        -0.204870     -0.050296      0.072871
O	      6.27384      8.10686      8.06122         0.672901      0.039038      0.189235
O	      6.25058      5.88203     10.49703         0.014366      0.229185      0.042155
O	      8.45646      8.08140     10.27857        -1.160298      0.046433     -0.846832
