# total energy = -202.00839978 eV
 
CRYSTAL
PRIMVEC
-0.040515 6.293696 6.271037 
6.129258 -0.024741 6.256643 
4.058003 4.158863 0.010325 
PRIMCOORD
36 1
Li	     10.12143      4.20201      6.39411         0.029437     -0.039497     -0.002878
Li	      6.05505      4.22391      2.19873         0.029430      0.114561     -0.079166
Li	      5.97803      2.26448      4.20252         0.098142     -0.078439     -0.026885
Li	      6.15038      2.14961      8.34051         0.002588     -0.013842     -0.016272
Li	      8.12874      4.09585      8.28783         0.007152     -0.031782      0.035061
Li	      6.15023      6.13330      4.15016        -0.051009      0.095057     -0.054572
Li	      6.10114      4.10834      6.18036        -0.064039      0.078719     -0.011619
Li	      4.21827      4.30511      8.41534        -0.041106     -0.069923      0.040210
Li	      6.01354      6.09696      8.36887         0.104822     -0.002148      0.027691
V	      8.02349      6.21838     10.30548        -0.030702      0.217318     -0.228099
V	      6.14087      8.34740      6.48716        -0.050556     -0.012688      0.154013
Co	      7.94654      2.19435      6.33400        -0.430062      0.359521     -0.231786
Co	      4.03866      2.11121      2.05703        -0.169330      0.156742     -0.059712
Co	      4.07081      8.28164      4.18140        -0.068934     -0.010458     -0.129185
Cu	      3.97470      0.05732      4.10357         0.186932      0.094261     -0.006087
Cu	      4.12234      2.00078      6.21697         0.046002     -0.006905      0.135961
Ni	      4.13010      4.16679      4.03451        -0.165033      0.152888      0.063630
Ni	      4.09567      6.23804      6.33111         0.032848     -0.066884      0.030681
O	      2.15135      2.07156      1.86705         0.266368     -0.185690      0.381160
O	      4.02270      4.02663      2.06741         0.048263     -0.052046     -0.124161
O	      4.05100      2.18983      3.94619         0.026362     -0.225639     -0.073102
O	      6.08931      4.19071      4.17382        -0.004028     -0.019589      0.020198
O	      6.08224      2.04569      6.24793         0.277582      0.249249     -0.048042
O	      8.11545      4.15112      6.10136        -0.131337     -0.325293     -0.077075
O	      1.97592      4.31921      4.27703         0.005796     -0.125754      0.080057
O	      3.94047      6.30821      4.26488         0.077560      0.017269     -0.026619
O	      3.93988      4.15309      6.25745         0.103182      0.003405      0.028885
O	      6.17010      6.46378      6.26998        -0.047711     -0.027357     -0.030674
O	      6.12389      4.13510      8.56387         0.012447     -0.020829      0.080261
O	      8.14211      6.27047      8.58608        -0.030311     -0.030774      0.149327
O	      2.04565      6.06162      6.18160        -0.054293      0.019383      0.087603
O	      4.20168      8.27762      6.25651        -0.052966      0.042341     -0.046840
O	      4.05533      6.41770      8.37815         0.027048      0.008395      0.058955
O	      6.03878      8.39106      8.24515         0.042774     -0.030406     -0.092515
O	      6.21325      6.09642     10.47549        -0.119413     -0.082697      0.082080
O	      8.23136      8.08433     10.63984         0.086096     -0.150467     -0.090486
