# total energy = -202.34893361 eV
 
CRYSTAL
PRIMVEC
0.039719 5.869554 6.363046 
6.270517 -0.012195 6.414229 
4.170861 3.938495 0.001742 
PRIMCOORD
36 1
Li	      8.33237      2.01880      6.32955        -0.020715      0.087585     -0.054850
Li	      4.31586      7.87988      8.45381        -0.045929      0.089885      0.048794
Li	      8.41841      9.72610     10.71507         0.067000      0.095372      0.229683
Li	      6.37717      7.86025     10.57576         0.072900     -0.019339     -0.036082
Li	      8.33433      3.92483      8.45527         0.020407     -0.056567     -0.017248
Li	      4.21147      3.95368      4.21912         0.050014     -0.082516     -0.124277
Li	      6.34084      3.87286      6.42277         0.121552     -0.017718     -0.030591
Li	      6.23988      7.82847      6.46222        -0.033952     -0.073930      0.013875
Li	      8.35504      7.83223      8.63172         0.016333     -0.045712      0.151746
V	      2.27082      1.91875      4.24201        -0.188562      0.002575     -0.501855
V	      4.12316      5.80571      6.40802        -0.152291     -0.155610      1.146560
Co	      4.19058      3.94120      0.03710        -0.372411      0.253830     -0.044775
Co	     10.42981      5.89536      8.54167        -0.005661     -0.009351     -0.068713
Co	     10.42570      7.84450     10.66546         0.014505     -0.006603     -0.149006
Cu	      6.28434      9.71582      8.50340         0.006162     -0.007394      0.074910
Cu	      4.25070      1.99851      6.46656        -0.040322      0.211905      0.159769
Cu	      8.34941      5.86399     10.63343        -0.069744     -0.054355     -0.221807
Cu	      6.27556      5.90006      8.52747         0.205026     -0.052644      0.101607
O	      6.28171      7.80388      8.56806        -0.001663     -0.049280     -0.206482
O	      8.51843      7.80128     10.66577         0.056145      0.231080      0.009842
O	      1.93928      1.88926      2.33249         0.081486      0.127619      0.065392
O	      4.22238      3.99019      1.97170        -0.182558      0.021127     -0.020197
O	      3.99805      2.00917      4.22255         0.249325     -0.056163      0.001203
O	      6.26664      4.04160      4.30030         0.000528     -0.002310      0.031862
O	      6.35319      1.90453      6.62774         0.242785     -0.119791      0.111798
O	      8.55486      4.03876      6.40788         0.099228     -0.342896      0.042764
O	      1.95247      3.80768      4.22601        -0.042054     -0.108254      0.096551
O	      4.14197      5.92055      4.16014         0.192700      0.072894      0.341360
O	      4.16239      3.98856      6.30901        -0.092798      0.692823     -0.042836
O	      6.09767      5.87699      6.14533        -0.837691     -0.087434     -0.069422
O	      6.30150      3.93031      8.72438        -0.104956     -0.165650      0.085341
O	      8.47876      5.88001      8.55298         0.055828      0.033046     -0.109633
O	      2.10348      5.84677      6.32259         1.018203     -0.017064      0.031099
O	      4.15264      7.78631      6.23078         0.032325     -0.272094      0.012208
O	      4.23481      5.91255      8.28492        -0.057954     -0.074777     -1.103019
O	      6.38196      5.80737     10.87511        -0.353191     -0.042291      0.044429
