# total energy = -201.01436231 eV
 
CRYSTAL
PRIMVEC
-0.061561 6.382588 6.126266 
6.143049 -0.036464 6.102779 
4.054128 4.199383 0.015987 
PRIMCOORD
36 1
Li	      4.10917      6.34357     10.21639         0.046803     -0.044801      0.061645
Li	      6.05452      8.35420     10.23768         0.030039      0.003722      0.140514
Li	      0.03515      2.14170      2.10781         0.019132      0.014985     -0.131444
Li	      4.04332      4.30028      4.25384         0.000354      0.006079      0.154944
Li	      4.06009      2.24902      5.94020         0.070119      0.075314      0.041026
Li	      6.02209      4.27487      6.02399        -0.064085     -0.067658      0.049332
Li	      3.99733      8.39489      4.19790        -0.061589      0.065906      0.079406
Li	      6.16877      8.30311      6.13328         0.036004      0.030475      0.024105
Li	      4.12003      6.17429      6.04687         0.001153     -0.056861      0.057835
V	      6.10358      4.12820      2.16152         0.026733     -0.069943     -0.313958
V	      8.06369      4.41612      8.17477         0.022607      0.025927     -0.288863
Co	      6.12242     -0.00852      6.08800         0.023092      0.133260     -0.084530
Co	      8.12361      2.07247      6.05910         0.284110     -0.106990      0.171613
Co	      4.02591      2.08120      2.08347         0.635903     -0.035847      0.287118
Ni	      2.05546      6.40754      4.16664        -0.159242     -0.075652      0.046552
Ni	      6.00562      6.41269      8.14331         0.048282     -0.007270      0.072782
Ni	      6.03562      6.33532      4.18716        -0.249558     -0.006391      0.028788
Ni	      4.10636      4.24819      8.12264        -0.007112     -0.166510     -0.068276
O	      2.08317      2.02965      2.06471        -0.894328      0.153752     -0.735071
O	      3.97192      4.22896      1.92346         0.037144     -0.248101      0.088458
O	      4.01516      2.06222      3.91637        -0.075845      0.025697      0.105106
O	      6.03949      4.22142      3.91867         0.024461      0.004723      0.166535
O	      6.28558      1.92231      6.09260        -0.310968     -0.079563     -0.050840
O	      8.23606      4.09344      6.25270         0.041330     -0.431098     -0.142880
O	      2.06386      4.21929      3.85257         0.034453     -0.043731      0.202612
O	      4.00346      6.34448      4.10720         0.360280      0.112010     -0.014823
O	      4.07537      4.17440      6.21156         0.007298      0.029368     -0.436681
O	      6.09438      6.34182      6.16892         0.001754     -0.059939     -0.223047
O	      6.29977      4.23263      8.09688        -0.059597     -0.039243      0.032974
O	      8.13812      6.20374      8.14535         0.012465     -0.158584     -0.023916
O	      1.84872      6.47659      6.22795         0.025393      0.436264      0.026344
O	      3.83601      8.64930      6.26529         0.027018     -0.020858     -0.202869
O	      3.92913      6.29955      8.13330        -0.184448      0.449149      0.073659
O	      5.94485      8.55463      8.14964         0.482261      0.096327     -0.027336
O	      6.19780      6.28898     10.25454        -0.109448      0.024737     -0.085588
O	      8.15997      8.36428     10.15004        -0.121969      0.031343      0.918772
