# total energy = -204.81097927 eV
 
CRYSTAL
PRIMVEC
0.018385 6.190462 6.235868 
6.109514 -0.013315 6.266830 
4.066466 4.141756 -0.002195 
PRIMCOORD
36 1
Li	     10.10005      4.22125      6.31423         0.027703      0.048815      0.005457
Li	      2.03369      2.09540      0.03173         0.003993     -0.029824     -0.006108
Li	      6.06025      2.08085      4.27952         0.070867     -0.042796     -0.014379
Li	      6.12019      2.11542      8.22933         0.002794      0.158546     -0.044419
Li	      6.09069      4.11202      6.29424         0.004766     -0.045205      0.144311
Li	      4.12253      8.22520      4.22658         0.011150      0.033611     -0.036218
Li	      6.10598      8.21239      6.22599        -0.022149      0.018708      0.009942
Li	      4.21454      4.10280      8.23670         0.003473     -0.036930      0.020032
Li	      6.09784      6.24005      8.22084         0.038863     -0.117427      0.027846
V	      6.09291     10.19568      8.27935        -0.044177      0.101481     -0.169086
V	      8.02891      6.30250     10.36511        -0.133724      0.293007     -0.317175
Co	      4.07715      8.20677      8.27772         0.004704      0.025096     -0.089383
Co	      7.99547      4.11435      8.30764         1.008196     -0.073206     -0.096399
Co	      4.09595      2.11257      6.26736         0.103411      0.026355      0.093362
Co	      4.12269      6.19244      6.27795        -0.035740      0.053744      0.060248
Cu	      6.08440      6.23067      4.17526        -0.104876      0.049286     -0.101001
Ni	      8.22200     10.27343     10.46369         0.062896     -0.100325     -0.077922
Ni	      4.10054      4.11865      4.19926         0.005585     -0.018141     -0.040710
O	      2.08333      2.02965      2.13835        -0.038291     -0.234445      0.039674
O	      4.08551      3.96902      2.06648        -0.331730     -0.102454     -0.045156
O	      4.01321      2.00917      4.01059         0.056624     -0.016630      0.007068
O	      6.18098      4.02509      3.89625        -0.053245     -0.077436      0.063959
O	      5.93029      2.08751      6.28293        -0.128968     -0.013817     -0.101013
O	      8.14087      4.31424      6.27396        -0.208048      0.055409      0.430566
O	      2.10222      4.39707      4.12114        -0.118373     -0.161189     -0.195693
O	      4.04074      6.18678      4.35757         0.007833      0.019142      0.220593
O	      4.08723      4.08048      6.20795         0.001336     -0.015064      0.101852
O	      6.12967      6.19096      6.12957         0.103864      0.008334     -0.075385
O	      6.22977      4.13691      8.38713        -0.091840      0.094873     -0.046724
O	      8.18593      6.21190      8.56104        -0.121704      0.269054      0.100747
O	      2.16003      6.20348      6.29822        -0.080518     -0.060366      0.035303
O	      4.07485      8.08243      6.37680         0.002897     -0.062342      0.053008
O	      4.05542      6.24321      8.25878        -0.038711     -0.049207     -0.082982
O	      5.99817      8.30954      8.25981        -0.035911     -0.038183      0.001935
O	      6.25743      6.19053     10.50812         0.032359      0.010028      0.052974
O	      8.18636      8.11913     10.46540         0.034689      0.029493      0.070877
