# total energy = -205.99359594 eV
 
CRYSTAL
PRIMVEC
-0.000558 6.198690 6.212520 
6.322489 0.006599 6.205985 
4.209801 4.122733 0.009436 
PRIMCOORD
36 1
Li	      6.29790      4.13403      2.18465         0.022902      0.006505     -0.019671
Li	      4.21132      2.05412      2.14473        -0.081210      0.014305      0.058270
Li	      6.24369      2.15930      4.10380        -0.032956     -0.035642      0.004652
Li	      2.04873      4.13477      2.14421         0.020029     -0.050827     -0.017013
Li	      4.34004      4.07007      4.10821        -0.019040     -0.050911     -0.014059
Li	      4.12626      2.11834      6.04420        -0.071456     -0.010254     -0.097711
Li	      6.34835      4.16565      6.13843         0.076004      0.045237     -0.040886
Li	      4.31735      6.22240      6.17323         0.102426     -0.021275     -0.034106
Li	      6.36771      6.16480      8.15038        -0.003560      0.001189     -0.069581
V	     10.37120      4.13833      6.28398        -0.016439      0.216169      0.136658
V	      4.21345      4.20025      8.09895         0.121416      0.147062      0.086216
Co	      4.21377      6.18633      2.11590         0.135316      0.043706      0.171710
Co	      6.33662      6.10787      4.12013         0.106295     -0.153646      0.227983
Co	      4.20230      8.25749      4.18782         0.030375     -0.123199      0.009593
Co	      8.41649      6.19919     10.35102         0.100698      0.180059     -0.174243
Cu	      2.05523      2.02034      0.13135        -0.004430      0.068187      0.024204
Cu	      6.31964      8.21441      6.18478        -0.092799     -0.055708      0.066453
Ni	      4.17355      0.04592      4.11523         0.015792      0.067437     -0.043697
O	      1.92773      2.10535      2.20135        -0.020610     -0.066221     -0.228340
O	      4.23607      4.22809      1.91747        -0.019961      0.025026      0.038212
O	      4.08108      2.05934      4.07037        -0.346357      0.021812     -0.061603
O	      6.39728      4.13637      4.15256        -0.316666      0.652414      0.006447
O	      6.42994      1.94443      6.35458        -0.256886     -0.025568     -0.000139
O	      8.57299      4.22815      6.21943        -0.042436     -0.015772      0.185082
O	      2.03148      4.25827      4.18353         0.036061     -0.129872      0.040675
O	      4.28065      6.16283      4.04744         0.255684      0.063995     -0.055762
O	      4.36812      4.10869      6.37202         0.039376      0.005201     -0.257930
O	      6.32850      6.30021      6.04121        -0.039344     -0.185682     -0.100501
O	      6.19291      4.01068      8.31015         0.119998     -0.032610      0.035272
O	      8.58378      6.29279      8.40053        -0.080272     -0.077840      0.171726
O	      1.90734      6.07736      6.10574         0.111739     -0.239026     -0.108952
O	      3.98906      8.39231      6.34021         0.290779     -0.042647      0.004954
O	      4.31260      5.99134      8.29333         0.020206     -0.098281     -0.152321
O	      6.59349      8.17930      8.21788        -0.177445     -0.050861      0.018276
O	      6.26623      6.25401     10.55595         0.103102      0.015217      0.094058
O	      8.46218      8.16271     10.30885        -0.086328     -0.107677      0.096076
