# total energy = -204.00557779 eV
 
CRYSTAL
PRIMVEC
0.118869 6.264914 6.076135 
6.253371 0.097870 6.095484 
4.221021 4.240986 0.013112 
PRIMCOORD
36 1
Li	      8.38156      2.33678      6.15302        -0.004112     -0.035823      0.027421
Li	      8.55350     10.53859     10.19129        -0.023762      0.092360     -0.034332
Li	      8.30174      4.31602      8.03640         0.047371     -0.012272      0.094044
Li	      8.33220      6.32615      6.16584         0.106974      0.073714     -0.087019
Li	      6.34113      4.39915      6.17233        -0.088957     -0.033774     -0.130680
Li	     10.50763      8.52883     10.14864         0.023097     -0.064964      0.073908
Li	      6.42106      8.31368      6.13107         0.076928      0.128989     -0.099908
Li	      4.40332      6.29550      6.13394        -0.059825     -0.113208     -0.121684
Li	      6.32247      6.28508      7.95284        -0.039682     -0.018840      0.097145
V	      6.34240      2.18650      4.13197        -0.667394      0.223191     -0.034268
V	      2.13545      6.22981      4.12537         0.351969     -0.403169      0.100162
Co	      2.08356      0.05138      2.03604        -0.068371      0.049526      0.083533
Co	      4.29748      8.38251      8.00126        -0.062256     -0.160120      0.408512
Co	      4.26014      6.32946      2.04677         0.079390     -0.170545      0.211477
Co	      4.25208      4.23914      4.13463         0.119555      0.379085     -1.390456
Cu	     10.37301      4.28702      6.10957         0.219016      0.114456     -0.111724
Cu	      6.35269      6.39906      4.17223         0.038086      0.019923     -0.084999
Cu	      4.30969      4.29167      7.99796         0.018088     -0.100485     -0.339784
O	      4.28556      8.56976      6.12730         0.040763     -0.038346     -0.127811
O	      2.03122      1.98823      2.16606        -0.138149      0.010230      0.013513
O	      4.38165      4.37737      2.20244         0.045996     -0.042910      0.049297
O	      4.36944      2.31281      3.95837         0.129972     -0.128277     -0.065685
O	      6.22280      4.18871      3.99276         0.078256     -0.065824     -0.015537
O	      6.24439      2.01304      6.10719        -0.051282     -0.045546      0.115651
O	      8.52787      4.30261      6.09219        -0.186890      0.036984      0.102606
O	      2.34139      4.31877      4.05134        -0.270912     -0.065517     -0.119573
O	      4.16123      6.22815      4.00106        -0.022275     -0.074238     -0.022146
O	      4.25507      4.22714      5.92976         0.124611      0.059017      1.191347
O	      6.35187      6.35394      6.03626         0.094661      0.057246      0.095285
O	      6.25546      4.09688      8.13380        -0.175066      0.037756     -0.042928
O	      8.58549      6.45815      8.28169        -0.022867      0.069996     -0.138202
O	      2.06400      6.30205      6.02523        -0.149721      0.016401      0.323108
O	      4.11937      6.31684      8.10049        -0.045044      0.105700      0.056429
O	      6.43853      8.62540      8.17179         0.258267      0.042103      0.047629
O	      6.46704      6.48372      9.94185        -0.114850     -0.086560     -0.078238
O	      8.29222      8.40337     10.21652         0.338415      0.143742     -0.046094
