# total energy = -207.14399060 eV
 
CRYSTAL
PRIMVEC
-0.052683 6.046144 6.280822 
6.325107 -0.020469 6.249027 
4.209088 4.001611 -0.005129 
PRIMCOORD
36 1
Li	      2.10266      1.98144      0.03603         0.082122     -0.064507      0.117276
Li	      4.10855      5.96362      2.24612         0.059982      0.014934     -0.087565
Li	      2.20452      4.09886      2.22143         0.007235     -0.176157     -0.019165
Li	      4.10248      4.07942      4.22442        -0.034200     -0.107802      0.049399
Li	      8.43736      6.01060      6.40787         0.040450      0.027570     -0.042329
Li	      0.10571      3.96388      4.25367         0.092197      0.058595      0.099180
Li	      6.23828      8.00180      6.22202        -0.129897      0.015434      0.013398
Li	      4.10615      6.05751      6.17598        -0.049550      0.055354      0.067661
Li	      6.48093      6.07753      8.38268         0.046199      0.009855     -0.080464
V	      6.25706      1.97961      4.14369         0.209719     -0.377120      0.120255
V	      6.35681      4.08920      6.43289         0.002432     -0.140261      0.346436
Co	      4.19962      9.92757      6.28899         0.020987      0.825416     -0.293836
Co	      6.25539      3.99974      2.06302        -0.203889      0.048277     -0.300870
Co	      4.16051      1.98678      2.05989         0.060726      0.130256     -0.393779
Co	      4.16225      6.01814     10.39908         0.002025     -0.171302      0.238529
Co	      6.15696      6.02872      4.13611        -0.237787     -0.122221     -0.154756
Cu	      4.19688      4.00921      8.30776         0.060326      0.047089     -0.145967
Ni	      2.17487      5.98131      4.14060        -0.377651     -0.253718      0.276865
O	      2.20961      1.92713      2.21455        -0.153356     -0.079894      0.158622
O	      4.30007      3.92493      2.00907         0.110398     -0.188762     -0.117003
O	      4.35084      1.94171      4.00233        -0.624014     -0.019721      0.181869
O	      6.21536      4.02276      4.05733         0.275444      0.238082      0.097089
O	      6.30127      2.08824      6.07374         0.016503      0.288111     -0.258594
O	      8.27771      3.97637      6.07329        -0.083964      0.103124      0.015272
O	      2.11606      3.88070      4.22229         0.063904      0.158353      0.026738
O	      4.15158      6.04613      4.20053         1.093788      0.114840     -0.006116
O	      4.49777      4.00849      6.34206        -0.117231     -0.036240     -0.005213
O	      6.35767      5.88181      6.11233        -0.034486      0.139602     -0.108217
O	      6.52167      4.04901      8.14660         0.017889      0.031666     -0.123758
O	      8.44283      6.09120      8.39077         0.013192      0.009663     -0.097283
O	      1.93033      6.05122      6.40008         0.249231     -0.005223      0.088608
O	      4.05456      8.07947      6.41588        -0.057426     -0.453806      0.382344
O	      3.95425      6.05429      8.43333        -0.100078     -0.031939     -0.241425
O	      6.04311      8.09186      8.37777        -0.007210     -0.051035      0.201031
O	      6.38585      6.07172     10.51426        -0.546213      0.081795      0.068550
O	      8.14069      8.06686     10.28086         0.232204     -0.118307     -0.072780
