# total energy = -208.48809224 eV
 
CRYSTAL
PRIMVEC
-0.022338 6.038960 6.405481 
6.102186 0.031566 6.352526 
4.102394 4.024587 -0.013640 
PRIMCOORD
36 1
Li	      8.14455      8.07461     12.68822        -0.083783     -0.205664     -0.043207
Li	      4.09774      8.06541      8.53553         0.034175     -0.074571      0.049908
Li	      4.03576      6.05037      2.23444        -0.084198      0.016025     -0.023968
Li	      6.00454      6.01311      4.20716         0.123048     -0.026261      0.020194
Li	      4.13852      4.19403      4.19363         0.062071     -0.104386     -0.019513
Li	      6.08057      4.01822      6.42676        -0.026502     -0.027475      0.037661
Li	      8.23782      6.19036     10.51199        -0.013168      0.036195     -0.136736
Li	      4.05098      6.10106      6.16937         0.070793      0.081858     -0.030392
Li	      8.15802      8.08137      8.55688         0.032337     -0.118245      0.050377
V	      2.05149      0.08727      2.17484        -0.062460     -0.222656      0.020478
V	      2.11899      4.00378      6.12065        -0.561197     -0.138315     -0.281725
Co	      4.08651     10.03938      6.40198         0.160042     -0.043955     -0.027038
Co	      8.14178      4.00643      4.29165        -0.049412      0.148047     -0.239756
Co	      6.09127      2.00880      4.26781        -0.114492      0.047435      0.164896
Co	      2.07074      3.95927      2.09689         0.288987     -0.197179      0.151903
Co	      4.06657      2.02303      6.33872         0.077250     -0.430274     -0.041327
Cu	     10.12673      8.02569     10.50893         0.085530      0.142435     -0.110580
Cu	      6.07053      6.06108      8.49663         0.119327     -0.002208     -0.039507
O	      2.06125      1.90259      2.13892        -0.031505     -0.346652     -0.077557
O	      4.11425      4.02104      1.95001         0.431363     -0.011039      0.045967
O	      4.14334      1.93555      4.40282         0.003333     -0.065897      0.198608
O	      6.18621      3.95073      4.18416         0.006710      0.046045      0.001920
O	      5.99364      1.92628      6.22282        -0.394889      0.182128     -0.020119
O	      8.28590      3.97986      6.24076        -0.200531      1.519246      0.039872
O	      2.17562      4.10649      4.38616         0.016029      0.005524      0.145511
O	      4.05760      6.11556      4.21875         0.070234     -0.147050      0.003226
O	      3.89054      4.12198      6.46219         0.606563     -0.983491      0.011668
O	      6.16386      6.20427      6.28827         0.392281      0.017048     -0.082559
O	      6.21641      4.10363      8.53229        -0.816517     -0.112562     -0.023222
O	      8.07661      5.94415      8.26154         0.016932      0.925178     -0.222801
O	      1.95158      5.93169      6.56098         0.016386      0.002212     -0.073266
O	      4.30127      8.11277      6.36090        -0.049175      0.032143      0.089676
O	      4.01922      6.06236      8.76003        -0.009375      0.012723      0.185003
O	      6.09058      8.12891      8.68523        -0.036829      0.033046     -0.032434
O	      5.97058      6.06744     10.82446        -0.056891      0.002140      0.191535
O	      7.96236      8.13032     10.67575        -0.022464      0.008450      0.117304
