# total energy = -207.75571807 eV
 
CRYSTAL
PRIMVEC
-0.000579 6.179464 6.284106 
6.235018 -0.001167 6.284439 
4.147355 4.110768 0.008442 
PRIMCOORD
36 1
Li	      4.11230      4.03093      0.14491         0.054888      0.040598     -0.079787
Li	      2.14051      2.10021      0.18514        -0.054554     -0.074915     -0.044920
Li	      4.09699      2.10385      2.19324         0.015933     -0.029350      0.048876
Li	      6.11904      8.21487     10.37993         0.031680      0.000387     -0.038580
Li	      0.14028      1.92874      2.08159         0.084667     -0.067230      0.020711
Li	      2.24193      2.08946      4.04420        -0.012544     -0.050620      0.014304
Li	      4.13319      3.94790      3.99382         0.078084      0.020552      0.011921
Li	      6.14425      8.13489      6.38237         0.043728      0.022136     -0.036078
Li	      4.21817      6.21999      6.36742        -0.013042     -0.048598      0.051140
V	      6.18584      4.04967      6.16449         0.099269      0.229003     -0.031591
V	      2.16361      6.15186      4.30865        -0.291352     -0.104403      0.156462
Co	      2.00535      0.04277      2.03035         0.043486     -0.146983     -0.022455
Co	      2.14965      4.04029      2.06833         0.315607     -0.366810      0.022999
Co	      4.14208      8.24427      4.30146         0.013688      0.090018      0.149352
Co	      4.15619      4.12707      8.38470        -0.037346      0.046749      0.019567
Co	      6.20860      6.21462      8.38579         0.002962     -0.065564      0.026402
Ni	      4.19667      0.06680      4.19591         0.018766     -0.127659      0.043688
Ni	      4.12822      2.08685      6.26010        -0.029650      0.037621      0.018250
O	      2.10642      2.00854      2.11135        -0.030308     -0.307969     -0.019418
O	      4.18918      4.07799      2.04486         0.238294      0.133045      0.083970
O	      4.17596      2.02373      4.28417        -0.018287      0.188927     -0.174837
O	      6.22037      4.16261      4.41187        -0.154731     -0.001002     -0.099133
O	      6.21039      2.28875      6.36469         0.099431     -0.147800      0.063740
O	      8.14411      4.12965      6.34278        -0.221566      0.014896     -0.291481
O	      2.04269      4.29075      4.07509        -0.085961      0.216452      0.347614
O	      3.92475      6.20957      4.11970         0.169639     -0.055891     -0.080251
O	      4.31536      4.15397      6.44588        -0.038970      0.081721      0.065781
O	      6.23199      6.05208      6.46097        -0.053104     -0.051718      0.088483
O	      6.15230      4.26029      8.41947        -0.110616      0.066649     -0.014433
O	      8.15058      6.26890      8.43076        -0.079581      0.151411      0.043446
O	      2.02307      6.19693      6.04383         0.032368      0.080750     -0.030538
O	      4.14960      8.21626      6.07006        -0.022597      0.001217     -0.048734
O	      4.22239      6.05712      8.45830        -0.160267     -0.048803     -0.128337
O	      6.38069      8.18695      8.33506         0.068783      0.264912      0.037822
O	      6.31639      6.16713     10.33474         0.051173      0.007928     -0.097633
O	      8.30825      8.13532     10.32560        -0.047968      0.000343     -0.076324
