# total energy = -91.69460392 eV
 
CRYSTAL
PRIMVEC
1.993761 3.952608 1.993445 
2.028935 -3.987680 2.029252 
4.061479 0.000259 -4.061534 
PRIMCOORD
16 1
Li	      5.90074     -0.03413      1.90025         0.195204      0.001624      0.729978
Li	      3.98006      1.89916      1.85375        -0.136638      0.392292      0.227653
Li	      3.93558     -0.01704     -0.03789        -0.501221      0.101006     -0.154038
Li	      5.75279      1.89975      0.08021        -0.084678      0.570812      0.002703
Mn	      7.83442     -0.03404     -0.03227         4.415322     -0.106299      0.225786
Mn	      3.96394     -1.95120      1.90398         0.371742     -2.652898      1.705596
Ni	      5.85190     -1.95081      0.01599         1.229772     -1.458168     -0.355850
Ni	      5.87597     -0.01687     -1.97591         0.643636      0.217576     -2.089020
O	      6.02773     -0.00317     -0.06955        -0.941385      0.814895      1.163591
O	      3.76826      1.86804     -0.03748         0.861819      0.839157     -0.136744
O	      3.96995     -0.03058     -2.12772        -1.501781     -0.121067     -0.867998
O	      3.87645     -0.12688      2.05430         0.145913      1.407723      0.671149
O	      3.93687     -1.90260      0.13155        -0.787166     -0.501348     -2.018074
O	      1.93823      1.99098      1.82266        -0.810895      1.163039      1.022289
O	      1.84597      0.09237      0.02314        -1.372555      0.068591     -0.402102
O	      2.07687     -2.02543      1.96181        -1.727087     -0.736932      0.275080
