# total energy = -210.81684005 eV
 
CRYSTAL
PRIMVEC
-0.003035 6.151474 6.236455 
6.167078 0.008559 6.225428 
4.112217 4.094911 0.004699 
PRIMCOORD
36 1
Li	      6.15995      6.15481     12.38243        -0.002452      0.087100     -0.005760
Li	      8.24878     10.17793     10.40206         0.016270      0.030790     -0.072627
Li	      6.09549      2.09615      8.25283         0.023989     -0.032231     -0.106434
Li	      2.05586      2.05768      4.11806         0.019189      0.019131      0.019714
Li	      6.19804      4.04770      6.23470         0.006574     -0.068149      0.000435
Li	      8.15490      6.18523     10.29417        -0.039684      0.011645      0.019684
Li	      2.06816      4.17974      6.27081        -0.026120      0.010001      0.050648
Li	      8.27364      8.08410      8.38514        -0.056661      0.097749      0.037694
Li	      6.22613      6.15407      8.41486        -0.036409     -0.016858     -0.003572
V	      4.23955      6.16035      6.27591         0.075667     -0.023951      0.020753
V	      4.09764      4.15150      4.14151         0.067196     -0.095010      0.097774
Co	      8.20160      8.19468     12.45784        -0.297710      0.051211     -0.041729
Co	      2.05573      0.02387      2.06960        -0.047809     -0.191439      0.035656
Co	      4.11898      2.05972      2.08412         0.038539      0.061331      0.059844
Co	      6.18271      8.10385     10.41125         0.242094      0.421649     -0.544163
Co	      8.04580      4.16342      8.23759         1.652056      0.055517      0.007148
Co	      8.18750      6.12456      6.25593         0.154265      0.058472     -0.031581
Cu	      6.11528      4.17908     10.36280         0.137201     -0.095805     -0.316077
O	      2.16211      1.98162      1.95061        -0.002219      0.581800      0.024551
O	      4.19440      4.00840      2.11821        -0.223349     -0.033834     -0.018058
O	      4.19284      2.10757      4.08002         0.078882      0.008976     -0.010955
O	      6.02242      4.13334      4.02081         0.249190     -0.451129     -0.010704
O	      6.25202      2.03973      6.07186         0.003991     -0.162680      0.174084
O	      8.20177      4.00723      6.31189        -0.376213      0.016267      0.751728
O	      2.28632      4.07583      4.05240        -0.537325      0.051494     -0.623448
O	      4.11038      6.15402      4.31382         0.017433      0.037289     -0.170720
O	      4.12474      4.17073      6.12143        -0.061446      0.035399     -0.018367
O	      6.03539      6.20101      6.28443         0.051931     -0.005300     -0.018132
O	      6.23416      4.07311      8.40179         0.014774      0.043485      0.093489
O	      8.26231      6.09436      8.21836        -0.378745     -1.005116      0.000226
O	      2.18895      6.22899      6.37751        -0.024977     -0.006384      0.068442
O	      4.01968      8.15628      6.33564         0.008283     -0.009504     -0.016271
O	      3.99352      6.26761      8.26822        -0.101899      0.048116      0.064773
O	      6.06214      8.34081      8.42355        -0.041656     -0.126904      0.090320
O	      6.15502      6.11197     10.37438        -0.204850      0.538417      0.327864
O	      8.07859      8.17272     10.52764        -0.397999      0.058457      0.063771
