# total energy = -200.01374298 eV
 
CRYSTAL
PRIMVEC
-0.009239 6.167002 6.427952 
6.004448 0.022058 6.395050 
4.024177 4.111744 -0.007083 
PRIMCOORD
36 1
Li	      1.99909      8.11901      6.45004        -0.039493      0.026018     -0.139193
Li	      2.01206      6.16948      8.43076         0.049222     -0.015960     -0.005476
Li	      6.04340      8.18560     10.59259         0.017911      0.028033      0.109381
Li	      6.10915      2.16006      8.45598        -0.052046     -0.085105      0.006121
Li	      2.02604      2.07398      4.18633         0.010473     -0.010311      0.084284
Li	      6.00339      4.08536      6.48894        -0.010883     -0.018409      0.031198
Li	      1.97243      6.21383      4.42662         0.022571     -0.037205     -0.024398
Li	      6.01958      8.30195      6.52075         0.041710     -0.036237     -0.134177
Li	      7.96336      8.28541      8.64557        -0.025425      0.126007      0.000725
V	      4.07461      4.14450      4.28143         0.066667      0.046320     -0.376747
V	      8.00518      6.11202      6.52668         0.033466      0.115015     -0.005060
Fe	      9.96879      8.24339     10.65463         0.161979     -0.158931     -0.269092
Co	      3.99698      6.17784      6.39319         0.019916     -0.137372      0.217642
Cu	      7.92433      4.08521      4.23866        -0.174411      0.046845     -0.023275
Ni	      0.08589      6.16022      6.42062         0.038617      0.042293      0.055764
Ni	      4.00113      8.20256      8.46930        -0.082032      0.063663     -0.384657
Ni	      1.99780      4.04499      2.18353         0.070660      0.167283     -0.062819
Ni	      5.98329      6.20135      8.57777        -0.199982     -0.100300     -0.020279
O	      2.13841      2.06757      2.10480        -0.225884     -0.030268      0.120728
O	      4.02820      4.01847      2.28983         0.051347      0.801727      0.338902
O	      3.98396      2.18055      4.44388         0.036240     -0.061647     -0.246960
O	      5.89706      4.12504      4.25371         0.036053      0.008954     -0.022778
O	      5.82791      2.05221      6.43471         0.024976      0.130550      0.023321
O	      8.05023      4.28201      6.47284        -0.133567     -0.042497      0.019253
O	      2.13889      4.14413      4.21136        -0.096186     -0.009831      0.137797
O	      4.03928      6.06376      4.38750         0.021846      0.209563      0.045982
O	      4.01412      4.12246      6.22406        -0.040089     -0.126054      0.004872
O	      6.10874      6.15239      6.43954         0.089503      0.055984     -0.116437
O	      6.02107      4.15080      8.68193        -0.030794     -0.095429      0.092815
O	      8.01542      6.25802      8.32615         0.134133      0.044105      0.065102
O	      2.08255      6.16210      6.36592        -0.031238     -0.030198      0.095413
O	      4.04374      8.11930      6.31377        -0.044304      0.149063      0.414906
O	      3.99034      6.28494      8.28847         0.006146     -1.218291     -0.162002
O	      5.86019      8.18382      8.56087         0.318639      0.209077      0.118285
O	      5.88969      6.13040     10.74577         0.068865      0.117459     -0.055804
O	      8.02184      8.31756     10.65537        -0.134605     -0.173911      0.066663
