# total energy = -199.46906660 eV
 
CRYSTAL
PRIMVEC
-0.023524 6.348457 6.045316 
6.368061 -0.008252 6.029789 
4.239832 4.216477 0.000063 
PRIMCOORD
36 1
Li	      6.38402      6.35844     12.01922         0.093577     -0.042306      0.001494
Li	      8.40373      8.43677     12.00162         0.021924     -0.091346     -0.031864
Li	      6.39909      2.11154      4.10147         0.014862      0.002435     -0.015645
Li	      6.23919      6.43633      4.07474        -0.032076      0.011112      0.027448
Li	      4.08153      4.36208      4.10152        -0.030347      0.021577      0.028107
Li	      4.29471      8.32507      4.16480         0.007055      0.004394      0.012532
Li	      2.24782      6.23591      4.17613         0.007927     -0.003278      0.069683
Li	      2.08201      4.26336      5.88796        -0.030018      0.071293      0.082901
Li	      4.21682      6.31310      5.87246        -0.047710      0.010220      0.050600
V	      4.17122      2.16204      1.94551         0.019295      0.047997      0.005131
V	      6.42518      6.36549      8.08468        -0.023770      0.034870     -0.055864
Fe	      4.24484      4.26823      8.07795        -0.005688      0.036198     -0.001157
Co	      2.04657      0.06424      1.96075        -0.158583      0.025252      0.463270
Cu	      8.48449      4.17835      4.05999        -0.044254      0.035172     -0.085300
Cu	      6.34522      4.17544      5.94717        -0.211256      0.061411     -0.052386
Ni	      4.29510      6.30221      2.06850        -0.002313      0.034226     -0.076138
Ni	      2.10516      4.21290      2.09396         0.004636     -0.008940     -0.126979
Ni	      4.26957      2.11199      5.93440        -0.063426      0.023038     -0.057055
O	      2.21273      2.12463      2.00384        -0.024414     -0.181447     -0.009250
O	      4.22877      4.12135      2.03945         0.069561     -0.061799     -0.024149
O	      4.29826      1.96005      3.87223         0.041847      0.037883      0.055209
O	      6.47797      4.18879      3.81919         0.298030     -0.027797     -0.091813
O	      6.30878      2.18831      6.11844         0.056274     -0.082674     -0.138259
O	      8.37083      4.27515      6.07291         0.052163     -0.071457     -0.129896
O	      2.09868      4.23600      4.00425         0.002778     -0.017587      0.173191
O	      4.21270      6.34508      3.96902         0.041320     -0.018117      0.195245
O	      4.34831      4.15166      6.12384        -0.064283      0.089052     -0.264217
O	      6.39307      6.22342      6.17977        -0.068833      0.053648      0.048972
O	      6.31532      4.38771      8.06648         0.018799      0.008147      0.096076
O	      8.29878      6.38325      8.07895         0.046070      0.033652      0.086189
O	      2.09705      6.32890      6.24453         0.010252      0.018349     -0.312587
O	      4.23794      8.44831      6.23681         0.017235     -0.038493     -0.246145
O	      4.34772      6.36075      8.00678        -0.003162     -0.001252      0.074901
O	      6.34378      8.27324      8.00257         0.041972      0.028388     -0.028032
O	      6.27744      6.32448      9.89705        -0.018559      0.037415      0.068243
O	      8.44978      8.56726      9.96895        -0.036885     -0.079235      0.207545
