# total energy = -200.50386103 eV
 
CRYSTAL
PRIMVEC
-0.039278 6.558468 6.051804 
6.290546 0.054779 5.959258 
4.215762 4.330763 0.017599 
PRIMCOORD
36 1
Li	      6.12329      0.29812      5.97894         0.028208      0.128484      0.005832
Li	      8.29143      2.40482      5.98531        -0.092418      0.057796     -0.049839
Li	      2.08526      0.14518      1.99914         0.016637     -0.033810     -0.016144
Li	      8.21030      4.53841      4.11173        -0.058201      0.011563     -0.103508
Li	      6.25982      2.30529      4.08957        -0.031231      0.057763      0.046301
Li	      6.36436      6.35166      4.08139         0.047771     -0.068938     -0.008281
Li	      8.51099      6.35184      5.93797         0.077772      0.059242     -0.025219
Li	      6.44845      4.33945      5.96310        -0.012232     -0.062783     -0.088625
Li	      6.18144      8.51269      5.97937         0.087410     -0.038759      0.029347
V	      2.00398      6.56330      4.21681         0.051337      0.117192     -0.081406
V	      4.06290      4.42621      7.88470        -0.076117      0.015490     -0.001678
Fe	      4.38549      4.26063      3.95858        -0.088046      0.040857      0.292856
Co	      4.22844      6.50838      6.03031        -0.018662      0.021556      0.017698
Cu	      4.01045      2.23590      1.94865         0.213652     -0.021697     -0.009887
Cu	      2.13983      4.27358      1.93021         0.042984      0.064949      0.114399
Cu	      4.17973      8.70038      4.13294         0.062363      0.010893      0.129110
Ni	      6.34848      2.27321      7.93406        -0.109441      0.026882      0.038250
Ni	      6.31949      6.51420      7.95850         0.037152      0.037550      0.121529
O	      4.22395      8.41379      6.09031        -0.205586     -0.031174     -0.061518
O	      2.05335      2.19181      2.03469         0.058028      0.037049     -0.068302
O	      4.17997      4.51750      2.01028         0.005124     -0.217172     -0.265313
O	      4.15116      2.33963      3.87023        -0.011002     -0.213640      0.148518
O	      6.24234      4.32594      3.99300         0.202993      0.082353     -0.105293
O	      6.29220      2.26020      6.03890        -0.001133      0.061368     -0.280844
O	      8.42089      4.39618      6.02334        -0.002341      0.024111     -0.043611
O	      2.01561      4.65602      3.89977        -0.043869     -0.127514     -0.005085
O	      4.04060      6.34892      4.08567        -0.023083     -0.049899      0.121788
O	      4.16151      4.48527      6.06959         0.040930      0.059490     -0.062836
O	      6.10169      6.53192      6.02495        -0.008334     -0.016175     -0.186817
O	      6.14998      4.41815      8.10978         0.017759     -0.011797      0.000487
O	      8.44196      6.83913      8.05023        -0.006322     -0.052284     -0.013159
O	      2.19620      6.50970      5.94976         0.058012     -0.004642      0.215106
O	      4.25173      6.31821      7.99747        -0.092955      0.010491      0.008574
O	      6.52806      8.68738      8.04691        -0.145023     -0.014705      0.024623
O	      6.53122      6.69658     10.00376        -0.070411      0.027071      0.101708
O	      8.49570      8.54256      9.94933         0.048275      0.012839      0.061240
