# total energy = -201.61007426 eV
 
CRYSTAL
PRIMVEC
-0.048595 6.185386 6.281381 
6.346573 -0.010374 6.244310 
4.218437 4.086956 0.005596 
PRIMCOORD
36 1
Li	      0.05426      6.03770      6.13843        -0.018001     -0.038751     -0.014636
Li	      8.47717      8.21291     12.38902         0.035597      0.037528      0.011742
Li	      4.24992      8.23834      8.25943         0.013458      0.002115     -0.051913
Li	      4.21849      6.08403     10.27323        -0.015282      0.069034     -0.011438
Li	      8.40281      6.13931      6.37039        -0.019222      0.044137     -0.041173
Li	     10.27219      8.31748     10.46598        -0.024037      0.023233      0.023878
Li	      6.16576      8.27101      6.32720        -0.049235     -0.050022      0.016291
Li	      8.27252      8.26611      8.41629        -0.014321     -0.046198     -0.056510
Li	      6.28690      6.19759      8.43201         0.001182      0.008325     -0.023989
V	      2.29092      2.08904      4.25772         0.024717     -0.122341      0.258211
V	      6.33261      3.93871      6.44651        -0.078439      0.083782     -0.212977
Fe	      4.09572      6.30421      6.27198         0.318195     -0.078280     -0.066140
Co	      4.37320      4.11226      4.19014         0.033626     -0.028294      0.118046
Cu	      2.09667      6.15899      8.29057        -0.043961      0.000930     -0.086335
Cu	      6.29084      8.08412     10.34768        -0.121171     -0.097832      0.086553
Cu	      2.18048      4.08394      2.12546         0.017702     -0.149725     -0.124420
Cu	      8.34109      6.14762     10.39987        -0.030050      0.084034      0.167330
Ni	      4.18747      6.11317      2.18111         0.030814      0.080561     -0.049196
O	      6.27255      8.29770      8.41322        -0.002163      0.141378     -0.157921
O	      6.14616      6.18326     10.42603        -0.042444     -0.238862     -0.042968
O	      8.22564      8.12111     10.41157         0.215698     -0.135932      0.023409
O	      2.08521      2.05964      2.30703         0.130072     -0.041172     -0.199558
O	      4.48002      4.11899      2.24409        -0.193416     -0.106566      0.069801
O	      4.22268      2.18329      4.21545        -0.037056      0.054146      0.035193
O	      6.31924      4.15496      4.39530        -0.014951      0.085337     -0.057997
O	      6.26528      2.16297      6.30751        -0.001501     -0.087341      0.008754
O	      8.14669      4.10779      6.41206         0.200957     -0.002669     -0.074437
O	      2.44796      4.07181      4.10343         0.091258      0.195424      0.021566
O	      4.45594      6.05673      4.20805         0.006571      0.000527      0.024676
O	      4.41637      4.19843      6.11849        -0.022466     -0.080769     -0.012837
O	      6.30971      6.14747      6.13120         0.015879     -0.034960      0.055767
O	      6.09696      4.11691      8.19458         0.001430      0.130753      0.232756
O	      8.49947      6.01059      8.47631        -0.209332      0.111777      0.059772
O	      2.12407      6.16034      6.06497        -0.344542      0.008058     -0.155229
O	      4.16768      8.17717      6.17750        -0.009589      0.205929      0.026958
O	      3.98827      6.18933      8.22027         0.154021     -0.027294      0.198974
