# total energy = -203.15386797 eV
 
CRYSTAL
PRIMVEC
0.034972 6.112400 6.269193 
6.308276 -0.025753 6.331568 
4.173129 4.084075 0.014696 
PRIMCOORD
36 1
Li	      2.18414      8.01599      6.35707        -0.038850      0.060215      0.095093
Li	      2.06832      0.03540      2.11552        -0.138953      0.156365      0.038308
Li	      4.13046      2.04903      2.07927        -0.062068      0.092337      0.027727
Li	      6.27273      2.03530      4.22956        -0.032341      0.027259      0.025984
Li	      4.28746      6.07471      2.20808         0.038175     -0.116232     -0.040568
Li	      1.99333      2.04895      4.07305         0.063608     -0.096285     -0.095090
Li	      4.21103      4.20042      4.06538         0.064583     -0.002758     -0.154544
Li	      2.23260      6.06714      4.32156         0.010761      0.022997     -0.040603
Li	      4.08031      6.20879      6.20327         0.036086     -0.087598      0.040297
V	      4.24409      2.03524      6.18797         0.016761     -0.059698     -0.006143
V	      8.33312      8.14846      8.55275         0.251396     -0.196118     -0.102394
Fe	      6.30934      4.05867      6.20278         0.033730      0.006415      0.127506
Co	      2.14898      4.00478      2.13430         0.196946     -0.924409      0.218255
Co	      6.31883      6.08468      8.43857        -0.011879     -0.002771     -0.000151
Cu	      2.06458      4.11507      6.25033         0.138725     -0.087858     -0.114870
Ni	      0.10793      6.11002      6.29740        -0.236784      0.224553      0.232640
Ni	      8.40001     10.16259     10.48665        -0.099502      0.095453     -0.001704
Ni	      0.08567      4.02895      4.18292        -0.222300      0.095276     -0.176728
O	      2.12545      2.21412      2.07206        -0.371517     -0.752495     -0.269558
O	      3.98920      4.08822      2.07788         1.164324      0.391354      0.029396
O	      4.19291      2.02035      4.41890        -0.043288      0.156861      0.097516
O	      6.34487      4.09121      4.31034        -0.210482     -0.001573     -0.015972
O	      6.17315      2.05932      6.35584         0.045952      0.039727     -0.075741
O	      8.35523      4.11941      6.38719        -0.017364      0.184100     -0.263925
O	      2.09229      4.07897      4.00545         0.150595      0.286759      0.858270
O	      4.21424      6.25691      4.19823         0.007230     -0.285682      0.079798
O	      4.28158      3.99458      6.48624        -0.182446      0.102265     -0.031716
O	      6.39732      6.12430      6.47844        -0.035407      0.110929      0.038956
O	      6.35296      4.14002      8.38008        -0.758041      0.228346     -0.086599
O	      8.26562      6.07809      8.31697        -0.225149      0.567234     -0.140430
O	      2.08222      6.04427      6.35608         0.257101     -0.109615     -0.156372
O	      4.28182      8.18838      6.15796         0.042854     -0.180838      0.141136
O	      4.36122      5.99317      8.41037         0.019654      0.087982     -0.010158
O	      6.43975      8.01118      8.50653        -0.182873      0.007199     -0.247056
O	      6.23516      5.94803     10.39804         0.337412      0.125756     -0.071119
O	      8.45240      8.08945     10.35850        -0.006648     -0.165454      0.050555
