# total energy = -204.31956600 eV
 
CRYSTAL
PRIMVEC
-0.003337 6.184814 6.268601 
6.312820 0.020226 6.244905 
4.221892 4.121096 -0.000210 
PRIMCOORD
36 1
Li	      4.23055      4.02152      0.11898        -0.007136     -0.022032      0.010325
Li	      2.26205      8.22388      6.37564         0.057298     -0.088812     -0.044012
Li	      2.08549      0.12201      2.02392        -0.007303     -0.078080      0.009745
Li	      4.08735      2.12725      2.02091         0.072484     -0.013687     -0.103012
Li	      2.01444      2.10289      3.99372        -0.051041      0.028961      0.119654
Li	      6.36584      4.16865      6.25324        -0.026111     -0.026752      0.011067
Li	      2.16715      6.16052      4.19822        -0.023277      0.015689      0.000697
Li	      4.11564      6.22533      6.19640         0.013187      0.067891     -0.004188
Li	      8.40935      8.18797      8.26383        -0.022305      0.124036     -0.023162
V	      6.49223      2.06727      4.35561         0.234380     -0.168340     -0.028251
V	      6.16264      6.23493      8.23721        -0.250485      0.051995      0.071595
Fe	      4.17382      4.18287      4.16696         0.019446     -0.067584      0.011301
Co	      4.19750      8.20241      4.20956         0.109913     -0.136013      0.268260
Co	      2.04211      4.32189      6.20293         0.021697      0.060531     -0.041662
Cu	      8.42646      4.11285      8.29050         0.008674     -0.060576      0.214805
Cu	      8.41959      6.20195      6.25255        -0.012130      0.032217     -0.167023
Ni	      8.43333      4.17622      4.23460        -0.075875     -0.089968     -0.091705
Ni	      0.03337      2.05278      2.08439        -0.078179      0.067482     -0.156405
O	      2.05166      2.14769      2.05336         0.176660      0.199961      0.002354
O	      4.12666      4.15701      2.16269         0.280564     -0.156120     -0.115786
O	      4.44364      2.08154      4.21726        -0.091749      0.205317      0.073159
O	      6.32865      3.92788      4.11515        -0.183009      0.098943      0.005456
O	      6.46946      2.06109      6.10769         0.023775      0.034169     -0.005064
O	      8.41064      4.25483      6.24002        -0.012411      0.137688     -0.099616
O	      2.14839      4.08567      4.21972         0.196770     -0.026593      0.072823
O	      4.20572      6.15386      4.11604         0.021427     -0.357446      0.085588
O	      4.11982      4.04139      6.17333         0.098531     -0.128135      0.131691
O	      6.17185      6.20030      6.48980        -0.019661     -0.033996     -0.165055
O	      6.36066      4.25541      8.48576        -0.288088      0.282379     -0.703233
O	      8.31739      6.12439      8.27414         0.027108     -0.213506      0.019587
O	      2.11942      6.08095      6.33717         0.091839      0.137202      0.029456
O	      4.31703      8.22886      6.10838        -0.282587      0.096685      0.796256
O	      4.38615      6.16168      8.46015         0.029885      0.011663     -0.087735
O	      6.34138      8.06570      8.41298         0.056042     -0.170913     -0.009889
O	      6.32242      6.32533     10.35318         0.099143      0.298972     -0.050403
O	      8.29688      8.27412     10.40618        -0.207475     -0.113227     -0.037617
