# total energy = -92.85093983 eV
 
CRYSTAL
PRIMVEC
2.024592 4.013731 2.024272 
2.060310 -4.049345 2.060632 
4.124285 0.000263 -4.124341 
PRIMCOORD
16 1
Li	      6.08465     -0.03520      1.95947         0.086236     -0.000079      0.344543
Li	      4.10410      1.95835      1.91152        -0.072411      0.185261      0.093595
Li	      4.05824     -0.01758     -0.03908        -0.250577      0.041197     -0.067590
Li	      5.93209      1.95895      0.08271        -0.061951      0.256744      0.018548
Mn	      8.07860     -0.03510     -0.03327         2.153668     -0.044952      0.098696
Mn	      4.08748     -2.01201      1.96333         0.146494     -1.247283      0.711107
Ni	      6.03428     -2.01161      0.01649         0.536606     -0.642465     -0.158193
Ni	      6.05911     -0.01739     -2.03749         0.272413      0.095993     -0.979167
O	      6.21559     -0.00327     -0.07171        -0.316243      0.394152      0.578040
O	      3.88571      1.92626     -0.03864         0.373955      0.399368      0.015332
O	      4.09368     -0.03153     -2.19403        -0.732009     -0.103942     -0.453504
O	      3.99727     -0.13083      2.11832         0.129615      0.577710      0.334360
O	      4.05956     -1.96190      0.13565        -0.381737     -0.215791     -0.825534
O	      1.99864      2.05304      1.87946        -0.357807      0.610429      0.450399
O	      1.90350      0.09525      0.02386        -0.768464      0.081718     -0.255025
O	      2.14160     -2.08856      2.02296        -0.757789     -0.388057      0.094392
