# total energy = -203.53728212 eV
 
CRYSTAL
PRIMVEC
0.027120 6.125979 6.126070 
6.273278 -0.010012 6.161258 
4.199762 4.126028 -0.022961 
PRIMCOORD
36 1
Li	      8.41533      8.17673     12.18529         0.033841     -0.034518      0.011318
Li	      6.26872      3.98441      2.15843         0.067632      0.066480      0.005452
Li	      8.34744     10.14848     10.15216        -0.036604     -0.048525     -0.062369
Li	      6.32407      8.15580     10.06747         0.014911     -0.044095      0.107735
Li	      4.19297      6.17814      2.07328        -0.031802     -0.072433     -0.003793
Li	      8.32731      6.19909      6.15504         0.024187      0.021323     -0.031614
Li	      6.31878      8.21341      6.21987        -0.000241      0.023317     -0.087601
Li	      8.22128      8.11011      8.21558         0.016364     -0.054941     -0.024001
Li	      6.33490      6.19948      8.22125         0.007116      0.000632      0.040647
V	      6.23648      0.11033      6.08567         0.253738     -0.467039      0.148317
V	      4.22930      6.17857      6.20754        -0.338040      0.136496      0.392300
Fe	      6.33109      4.05714      6.19406         0.106128     -0.141497     -0.289586
Co	      4.23457      2.11103      2.04267         0.648153     -0.544631     -0.161809
Co	      4.26171      4.12782      4.07865        -0.022479     -0.133189      0.053212
Cu	      8.38960      4.12403      8.19663        -0.018969      0.135224     -0.275947
Cu	      2.20422      2.02726      4.09393         0.028747      0.048097      0.071641
Cu	      8.37826      6.18101     10.17471         0.038785     -0.062913     -0.031687
Ni	      6.20300      4.06586     10.12925         0.076838      0.015843      0.337290
O	      8.42944      8.04727     10.14919        -0.318424      0.248141      0.007949
O	      2.27633      2.23090      2.12194         0.351685     -0.686197     -0.029705
O	      4.28775      4.04011      2.09151        -0.157920      0.940558     -0.005270
O	      4.14446      2.22685      3.98197        -0.127913      0.277810      1.278507
O	      6.19370      4.00488      4.21548         0.012775     -0.035555     -0.050098
O	      6.28266      1.88054      6.22622         0.017842      0.493467      0.015861
O	      8.44157      4.12399      6.17820        -0.339949     -0.040257     -0.135251
O	      2.28121      4.29465      4.03664         0.025944     -0.183563      0.134423
O	      4.42118      6.13166      4.19212         0.078087     -0.158090     -0.128533
O	      4.25954      4.18534      6.04111         0.008049     -0.070909     -0.040605
O	      6.20258      6.09447      6.11311         0.091366      0.033976     -0.087211
O	      6.32069      4.04049      8.12734         0.120689     -0.000664      0.078344
O	      8.38744      6.03218      8.29687        -0.007941      0.723632     -0.055913
O	      2.10561      6.16167      5.93862         0.092386     -0.019430      0.175651
O	      4.22699      8.24190      6.16036        -0.042163      0.065510     -1.104530
O	      4.10270      6.23390      8.00416        -0.041714     -0.640799     -0.191499
O	      6.15454      8.16402      8.14903        -0.582591     -0.005692      0.036198
O	      6.11168      6.04142     10.37136        -0.048514      0.214430     -0.097821
