# total energy = -203.22075800 eV
 
CRYSTAL
PRIMVEC
-0.027712 6.283098 6.379700 
6.123379 -0.013083 6.364805 
4.083121 4.179509 -0.009095 
PRIMCOORD
36 1
Li	      2.07327      8.29647      6.38403         0.010461     -0.019679     -0.109754
Li	      3.97640      8.18668      8.34985         0.166272     -0.072185     -0.168753
Li	      4.06885      6.27996     10.43399        -0.067246     -0.003094      0.070939
Li	      6.15908      6.25500      4.29838         0.067823     -0.106410      0.266560
Li	      4.12062      4.19374      4.38257         0.163707     -0.038598      0.253459
Li	      6.10923      8.34560      6.36316         0.078600     -0.103263      0.047402
Li	      4.11360      6.24324      6.44985         0.023700     -0.001712     -0.051969
Li	      4.07566      4.29437      8.39329        -0.130258     -0.000088     -0.198500
Li	      5.96428      6.21364      8.32597        -0.027641      0.072443     -0.187291
V	      6.05654      8.41636     10.43285        -0.233453     -0.046606      0.205459
V	      2.06691      4.21213      2.23522         0.089539     -0.467731     -0.410784
Fe	      6.11312      2.13493      8.54020        -0.116623      0.134262     -0.425032
Co	      4.07231      2.10093      6.37579        -0.161305      0.250772     -0.247676
Co	      6.10735      4.20409      6.34209        -0.011674     -0.130254     -0.218283
Cu	      4.09063     10.38062      6.36916        -0.175539      0.169089     -0.079297
Cu	      2.09516      6.28472      8.43862         0.002373     -0.223307      0.093792
Cu	     10.13669      8.38198     10.67477        -0.103832      0.163227      0.367668
Cu	      2.02860      6.31819      4.33852        -0.102985      0.038694      0.335296
O	      4.07372      8.42758      6.24847        -0.118231     -0.489765     -0.019297
O	      3.96582      6.25007      8.45450         0.176517      0.020080      0.131446
O	      1.99004      2.30956      2.12843         0.095615      1.247264      0.109550
O	      4.07688      4.27445      1.98861        -0.913653      0.189878      0.462791
O	      4.26763      2.02207      4.44342        -0.070772     -0.041012     -0.001445
O	      6.12473      3.99228      4.15870         0.006221      0.253608      0.231576
O	      6.02385      2.21314      6.40962         0.100479     -0.121346      0.300992
O	      8.06836      4.31736      6.53730         0.392246     -0.008264      0.660424
O	      2.18600      4.31203      4.03411        -0.067772      0.033372     -0.714106
O	      3.98383      6.41035      4.15514         0.196860     -0.140613     -0.211214
O	      4.21688      4.04990      6.35868        -0.499626     -0.212954     -0.042210
O	      6.22142      6.12125      6.28940         0.131847      0.340448      0.034647
O	      6.17046      4.19712      8.59424         0.854380     -0.025043     -0.199249
O	      8.18593      6.22614      8.29349        -0.010146     -0.817170      0.260613
O	      1.97376      6.22585      6.53982         0.207595      0.183511      0.020904
O	      6.00619      8.18850      8.72422        -0.074012     -0.039560     -0.061999
O	      6.15006      6.30121     10.80777         0.011532     -0.030149     -0.524590
O	      7.85623      8.28253     10.72197         0.109000      0.042155      0.017932
