# total energy = -202.71397162 eV
 
CRYSTAL
PRIMVEC
-0.057279 6.253965 6.314316 
6.149547 -0.007893 6.263923 
4.082414 4.118965 0.012266 
PRIMCOORD
36 1
Li	      8.15798      2.04839      6.28122         0.141464     -0.019888      0.031573
Li	     10.12860      6.32386      8.46991         0.005638     -0.006939      0.085487
Li	      3.99342      4.31099      4.34966         0.003279      0.007822      0.023665
Li	      4.03968      2.22877      6.38014        -0.085058     -0.024082      0.050813
Li	      5.94260      4.06799      6.35723        -0.002676      0.069103      0.063926
Li	      4.11282      8.13279      4.14392        -0.057209      0.072104     -0.058054
Li	      4.15140      6.17837      6.20254        -0.007826      0.013857     -0.043649
Li	      4.22942      4.01484      8.23634         0.041104     -0.004637     -0.015319
Li	      6.16352      6.12266      8.21822        -0.006064     -0.055154     -0.067493
V	      1.98135      6.27535      8.34046         0.088993      0.254020      0.080944
V	      8.21043     10.26265     10.58554         0.024790      0.113819     -0.227979
Fe	      8.05716      4.23350      8.45537         0.037254     -0.125788      0.020285
Co	      4.05159      8.29571      8.42447        -0.257751     -0.023349     -0.000774
Co	      6.09198      2.06744      4.20888        -0.051329      0.050033      1.198086
Ni	      0.01449      0.01743      0.02775        -0.027450     -0.401570     -0.044167
Ni	      2.11961      6.22871      4.16378        -0.120906      0.112422      0.056431
Ni	      6.03175      6.26791      4.30087         0.186322     -0.253375     -0.195205
Ni	      6.13646      8.23983      6.31239        -0.118667      0.118272      0.096453
O	      2.15133      2.00144      2.10204         0.114503      0.013515     -0.049068
O	      4.11645      3.99257      2.11201         0.011039     -0.055435     -0.022690
O	      4.10502      1.89070      4.06503        -0.715855     -0.242252     -0.172593
O	      6.22719      4.04115      4.08549         0.176752      0.950516     -0.276207
O	      6.14205      1.98327      6.06836        -0.035835      0.372978     -0.325803
O	      8.18213      4.10436      6.05879        -0.095609     -0.020363      0.150535
O	      1.99782      4.18924      4.17870         0.030076      0.142973     -0.095370
O	      4.06548      6.24440      4.20627        -0.079810     -0.055715      0.042109
O	      3.92029      4.15862      6.31333         0.357714     -0.015928      0.039638
O	      6.12365      6.36836      6.26017         0.022504     -0.329610      0.261240
O	      6.20713      4.13662      8.29565        -0.095784     -0.062765     -0.082837
O	      8.17769      6.13322      8.43323         0.009050      0.123544     -0.293127
O	      2.02491      6.17051      6.47588         0.011486      0.206054      0.142617
O	      4.17473      8.36083      6.50150        -0.205534      0.005890      0.116468
O	      3.96040      6.35502      8.55262         0.001855      0.057025     -0.006221
O	      5.95591      8.41016      8.55222         0.149882     -0.081957     -0.315170
O	      5.98892      6.33825     10.47374        -0.192835     -0.993108     -0.088400
O	      8.05015      8.43423     10.44150         0.742494      0.087969     -0.080144
