# total energy = -205.21574284 eV
 
CRYSTAL
PRIMVEC
-0.024571 6.269492 6.116158 
6.360439 -0.071766 6.165525 
4.192527 4.163780 -0.000252 
PRIMCOORD
36 1
Li	      6.26409      4.16782      2.21252        -0.002256      0.052925      0.000052
Li	      4.18604      2.12026      2.22408        -0.109688      0.057520     -0.019855
Li	      8.25039      4.22893      4.14129        -0.041082     -0.069246      0.015684
Li	      6.20990      2.22869      4.17614         0.035214      0.046506      0.046562
Li	      2.24426      1.96171      4.09886        -0.024854     -0.070275     -0.079938
Li	      4.32058      4.02400      4.16192         0.058506      0.062171      0.063335
Li	      6.24812      4.22013      5.99484        -0.095723      0.055578      0.076284
Li	      2.07059      6.20147      4.08244         0.009426      0.160263     -0.046422
Li	      4.25606      6.14722      6.08181         0.035293     -0.102402      0.011762
V	      4.18610      6.24116      2.11762         0.184804     -0.064276     -0.129309
V	      6.15927      6.37104      8.28538        -0.095233     -0.207935     -0.101484
Fe	      8.46926      8.22831     12.15579        -0.075693      0.021213     -0.007241
Co	      6.36944      6.19507     12.24299        -0.041438      0.079365      0.213181
Co	      2.12200      4.14379      2.08303        -0.020007     -0.122380     -0.025407
Co	      8.41250      8.29725      8.23335        -0.184516      0.006914      0.077308
Cu	      2.09884      4.23263      6.07174         0.173685     -0.118330     -0.021009
Ni	     -0.00534      4.15668      4.05141         0.003190     -0.079664     -0.026062
Ni	      4.21795      2.05689      6.07143        -0.042383      0.153739     -0.165579
O	      1.97580      2.10914      1.90912        -0.024332      0.195338      0.027728
O	      4.17854      4.24860      1.88752        -0.155547      0.006514     -0.178669
O	      4.20499      2.06445      4.12898         0.004231     -0.018754     -0.011241
O	      6.29995      4.16317      4.12172         0.000952     -0.006745      0.004677
O	      6.39501      1.88764      6.22346         0.079444     -0.155826      0.023441
O	      8.63835      4.04625      6.21632         0.095095     -0.051158      0.162726
O	      2.05764      4.12885      3.89796         0.125233      0.032961     -0.008170
O	      4.17181      6.23442      3.89284         0.007410     -0.054114     -0.028053
O	      4.07072      4.15290      6.29423        -0.070859      0.082483      0.030004
O	      6.34878      6.29636      6.38203        -0.086325     -0.030846      0.152649
O	      6.36006      4.08543      8.11693         0.111298     -0.123412     -0.123341
O	      8.47776      6.15545      8.13271         0.129562     -0.082088      0.193551
O	      1.96923      6.26065      6.10673        -0.085844     -0.010479     -0.010948
O	      4.20526      8.47208      6.09816         0.070017      0.039566      0.011653
O	      4.41543      6.21669      8.19970        -0.146530     -0.060773      0.042481
O	      6.33295      8.11034      8.34118         0.123294      0.397329     -0.146553
O	      6.38246      6.11797     10.12704         0.076437      0.050010      0.015803
O	      8.51415      8.25406     10.22091        -0.020784     -0.071689     -0.039598
