# total energy = -207.83399987 eV
 
CRYSTAL
PRIMVEC
0.008824 6.358253 6.223903 
5.991718 0.044124 6.190062 
4.025432 4.245692 -0.000536 
PRIMCOORD
36 1
Li	      8.08622      8.58478     12.33573         0.012447      0.081282      0.095932
Li	      3.94766      8.32254      8.37989        -0.006230     -0.037090     -0.101693
Li	      2.04296      4.14934      2.15804         0.022968      0.009703     -0.005822
Li	      4.01816      4.10686      4.10596        -0.051244      0.026517     -0.011305
Li	      4.03526      2.13939      6.08735        -0.018681      0.026522      0.069254
Li	      7.97664      6.51611     10.36989         0.064146     -0.038660     -0.004337
Li	      4.00720      6.42266      6.31853         0.002961     -0.046291     -0.031598
Li	      4.00756      4.38455      8.38041         0.029468      0.005296     -0.050657
Li	      5.94140      6.36774      8.35040         0.028074     -0.016606     -0.036923
V	      9.88615      6.38235      8.24579        -0.001627     -0.031768      0.069489
V	      2.06877      4.25080      6.26614         0.000810     -0.056825     -0.307279
Fe	      6.08113      4.39843      6.25339        -0.241790      0.049662      0.087225
Co	      4.00800      6.38363     10.33559        -0.117739     -0.020301     -0.172149
Co	      2.02458      2.15269      4.13478        -0.146004      0.112963      0.012582
Co	      5.99133      4.27701     10.30188         0.174459     -0.117145     -0.012926
Cu	      9.98037     10.63434     12.37618        -0.107413      0.012624      0.147040
Cu	      6.03614      8.45199     10.29513        -0.009678     -0.017918      0.033034
Ni	      2.02344      0.05216      2.06543        -0.154898     -0.037197     -0.061903
O	      1.92437      2.10821      2.20855         0.091270      0.129182     -0.018545
O	      4.03978      4.46661      2.01292        -0.164657     -0.010945      0.051185
O	      3.98519      2.00639      4.11312         0.179515     -0.104330     -0.018473
O	      6.07158      4.44796      4.19834         0.066803     -0.020436      0.021913
O	      6.03836      2.39774      6.41683         0.044863      0.200015     -0.210202
O	      8.02477      4.31980      6.09246         0.092868     -0.000917     -0.002684
O	      1.95190      4.10540      4.22022        -0.033697     -0.079448     -0.028524
O	      4.10354      6.51790      3.98083         0.074754      0.069776      0.068101
O	      3.89777      4.28567      6.13492         0.078501     -0.007576     -0.006699
O	      6.04232      6.42892      6.12315         0.031282     -0.027168     -0.062119
O	      6.01990      4.19314      8.28648        -0.002811      0.054207      0.053629
O	      8.14929      6.41147      8.34997        -0.147612     -0.013597     -0.011964
O	      1.93979      6.15042      6.17990         0.158368      0.003326     -0.017839
O	      4.16562      8.36431      6.01451        -0.092096     -0.067628      0.024307
O	      3.95901      6.35325      8.40475         0.389104     -0.037369      0.115484
O	      5.95368      8.45355      8.02832        -0.030998     -0.053066      0.348847
O	      5.92233      6.20663     10.38362        -0.033042      0.007683     -0.065979
O	      8.05286      8.66100     10.36157        -0.182439      0.053520      0.041596
