# total energy = -206.95909393 eV
 
CRYSTAL
PRIMVEC
0.037019 6.044709 6.432668 
6.272225 -0.007689 6.478417 
4.178000 4.056393 -0.001749 
PRIMCOORD
36 1
Li	      6.26532      0.05624      6.45380         0.007938     -0.039866      0.014131
Li	      2.10778      0.07733      2.24635         0.052991     -0.008005      0.057735
Li	      0.08429      1.99450      2.10695        -0.035740      0.010073      0.022739
Li	      6.23242      5.99228      4.37379        -0.058007     -0.002373      0.070350
Li	      4.25614      4.10362      4.29176        -0.064503      0.074342      0.018815
Li	      6.35034      3.91507      6.46266         0.021386      0.055028      0.023328
Li	      2.16692      6.07561      4.32245         0.075988     -0.005502      0.025186
Li	      4.30495      4.04964      8.53639         0.030687     -0.008179     -0.058771
Li	      6.20964      6.01438      8.62235        -0.003692      0.010704     -0.012271
V	      2.13768      4.13757      2.20749        -0.075736      0.202430     -0.044868
V	      6.28772      8.12756      6.65850        -0.039067     -0.021442     -0.302821
Fe	     10.44036      8.02571     10.69312        -0.019692      0.026892      0.064011
Co	      8.33670      2.01666      6.49502         0.243434      0.032000      0.079986
Co	      4.18194      6.03145     10.67572        -0.099018     -0.023553      0.018349
Co	      4.18751      6.05017      6.43359        -0.064943      0.021295     -0.033846
Cu	      4.10444      1.99961      2.22554        -0.023105      0.021354      0.016518
Cu	      6.25717      2.00741      4.39270         0.011803      0.036431      0.035312
Cu	      4.28386      1.95702      6.42396         0.006009      0.021246      0.053094
O	      6.23552      8.13073      8.38915        -0.038513      0.006880      0.335662
O	      2.13316      2.10313      1.95271        -0.043863     -0.064793     -0.032968
O	      3.97626      3.95804      2.24532         0.081131      0.021751      0.015498
O	      4.24092      1.91791      4.47028        -0.082910     -0.105307     -0.174534
O	      6.44751      3.97636      4.32396         0.251272     -0.015667     -0.000670
O	      6.48823      1.97221      6.58235        -0.076359      0.034544     -0.032307
O	      8.36360      3.95835      6.68197        -0.063604     -0.223779     -0.065784
O	      2.03174      4.07034      4.06256         0.047523     -0.025787      0.026039
O	      4.18365      6.11234      4.36652         0.060769     -0.086851     -0.103167
O	      3.98115      3.97663      6.42914         0.045784      0.090827     -0.033832
O	      6.18988      6.32720      6.40360         0.052577     -0.116731     -0.000212
O	      6.43423      4.02046      8.70212        -0.037877     -0.027917     -0.091754
O	      8.39532      5.91804      8.45451         0.028900      0.009513      0.139042
O	      2.13792      5.97305      6.40066        -0.000943      0.044686     -0.014635
O	      4.33768      8.17608      6.25136        -0.103104      0.005200     -0.027232
O	      4.18932      6.11461      8.54320         0.032056     -0.115166      0.049709
O	      6.08561      6.05389     10.70846        -0.182112     -0.007462      0.017404
O	      8.38249      8.11621     10.91537         0.062542      0.173187     -0.053236
