# total energy = -209.61547905 eV
 
CRYSTAL
PRIMVEC
0.023415 6.144319 6.235428 
6.270382 0.040108 6.218905 
4.197325 4.102801 0.009518 
PRIMCOORD
36 1
Li	      2.13998      2.04381      0.06342         0.044597     -0.053227      0.026031
Li	      2.12439      6.15973      8.22783        -0.027653     -0.027038     -0.019177
Li	      6.22476      2.14591      8.25220         0.035200      0.034166      0.034329
Li	      8.30092      4.21264      8.26291        -0.038034      0.001687      0.039081
Li	      6.38189      4.13393      6.33332         0.102466     -0.001855     -0.004133
Li	      6.30237      4.15900     10.28786         0.057286     -0.015507     -0.070993
Li	      2.14249      6.10798      4.14631        -0.016092      0.019736      0.067553
Li	      4.14684      6.20110      6.28963        -0.066566      0.037392     -0.054570
Li	      6.33096      6.09799      8.27786         0.014232      0.006752      0.013902
V	      6.33695      8.20296     10.39076         0.310331     -0.080057     -0.089519
V	      1.98137      2.11821      4.06612        -0.338713      0.000405     -0.229042
Fe	      4.37125      4.15334      8.27627         0.040598      0.286030      0.076188
Co	      4.20853      4.09909      0.06452         0.188718     -0.228379      0.016359
Co	      4.23010      8.18148      8.30374        -0.031333      0.034114     -0.196086
Co	      4.14242      4.15897      4.08213        -0.072719      0.241564     -0.064975
Co	      6.26904      8.23376      6.24081        -0.129524      0.296309     -0.108353
Cu	      8.40148      6.14735      6.31855         0.003421      0.147815      0.034817
Ni	      8.39929     10.25238     10.40348        -0.021308     -0.137924     -0.007402
O	      2.24828      2.01260      2.23047         0.097681     -0.026535      0.061034
O	      4.20863      3.97238      2.01034        -0.003233     -0.149053     -0.090217
O	      4.18479      2.04957      4.02757         0.013968      0.157085      0.164136
O	      6.24971      4.02960      4.24302        -0.045513     -0.104357      0.026471
O	      6.24661      1.98602      6.14989        -0.103666     -0.089119      0.082013
O	      8.52496      4.19287      6.21164         0.095503     -0.035866      0.105942
O	      2.08629      4.03478      4.12380         0.094883     -0.064298      0.082757
O	      4.33555      6.18206      4.18122         0.220061     -0.112842     -0.006066
O	      4.03654      4.07858      6.24216        -0.145341      0.001795      0.020420
O	      6.36697      6.27910      6.05954         0.056574      0.072091      0.078060
O	      6.24376      4.14843      8.26722        -0.050389      0.044162     -0.055500
O	      8.38112      6.28785      8.28158        -0.044410     -0.247566     -0.160422
O	      1.98246      6.01178      6.23186        -0.136112     -0.294728      0.024302
O	      4.30433      8.28992      6.37919         0.088320      0.089715      0.170386
O	      4.20101      6.17984      8.33298        -0.010015      0.151287     -0.065133
O	      6.18998      8.17614      8.44751        -0.009299     -0.013133     -0.001647
O	      6.26840      6.31520     10.53523         0.023130      0.155331      0.112514
O	      8.27055      8.22668     10.33704        -0.197050     -0.095952     -0.013059
