# total energy = -208.90752230 eV
 
CRYSTAL
PRIMVEC
0.002050 6.225838 6.428523 
6.201264 0.007255 6.424117 
4.138894 4.151540 -0.000630 
PRIMCOORD
36 1
Li	     10.26195      4.24391      6.46494         0.047567     -0.005569     -0.029550
Li	      1.98566      2.14780      0.17406         0.024526     -0.081890     -0.076891
Li	      2.08885      0.21206      2.06197        -0.028297     -0.098767     -0.141098
Li	      3.95966      2.05629      2.05074         0.107412      0.030968     -0.064379
Li	      6.25601      2.05450      4.45049         0.024419     -0.043539      0.088092
Li	      0.21392      2.03985      2.02560        -0.107781     -0.020158      0.016050
Li	      2.06786      3.97642      2.01780         0.003972      0.071079     -0.080390
Li	      2.03261      2.06272      3.97103        -0.011225     -0.077956      0.001185
Li	      8.35601      6.14075      6.43497        -0.011157      0.011772      0.039340
V	      4.16432      3.99287      4.08445         0.458512      0.168477     -0.256756
V	      6.26834      6.35133      8.57992         0.389169     -0.511673      0.070137
Fe	      6.26869      4.00355      6.46211        -0.247742      0.096954      0.097274
Co	      0.04442      4.10056      4.27025        -0.036988      0.172197     -0.177196
Co	      2.13427      6.27849      4.38015        -0.509867     -0.259449     -0.282033
Co	      6.20744      8.31344      6.43850         0.080197      0.048682     -0.168978
Co	      4.06334      6.26637      6.45971         0.108682      0.079491      0.044279
Ni	      8.24745      4.15378      4.30996        -0.003873      0.116086      0.023116
Ni	      4.15117      4.17557      8.59614        -0.012385     -0.112174     -0.061845
O	      2.09431      2.07404      2.08953        -0.009899      0.079273      0.115925
O	      4.17924      4.12810      2.35978        -0.093759     -0.019873      0.276803
O	      4.11175      2.24157      4.30341        -0.053904     -0.026093      0.018303
O	      5.99379      4.20332      4.42744         0.093353      0.028109     -0.051777
O	      6.15318      2.14438      6.45787        -0.024643     -0.185401      0.007044
O	      8.17083      4.18433      6.29627         0.242762      0.043990      0.047779
O	      2.26036      4.20669      4.32266        -0.491891      0.231157      0.999061
O	      4.06647      6.13794      4.30743        -0.011028     -0.157348      0.041876
O	      4.05165      4.20832      6.46327        -0.163784      0.168853     -0.081825
O	      6.17572      6.27879      6.68123        -0.087754      0.311246     -0.128671
O	      6.18289      4.31574      8.50673         0.190359      0.065361     -0.058629
O	      8.09159      6.24218      8.66195        -0.203073     -0.032095     -0.114109
O	      2.01909      6.09936      6.35656         0.235275     -0.559084      0.359490
O	      4.32961      8.25298      6.31387         0.131409     -0.157569      0.195094
O	      4.28472      6.21828      8.67125        -0.074410      0.132912      0.042305
O	      6.20626      8.16119      8.58466        -0.182830      0.504895     -0.789888
O	      6.23187      6.19802     10.53415         0.073030      0.179305     -0.042655
O	      8.30634      8.29010     10.63189         0.155645     -0.192172      0.123520
