# total energy = -198.39272353 eV
 
CRYSTAL
PRIMVEC
0.004197 6.077394 6.235679 
6.321665 -0.011246 6.251207 
4.216622 4.064465 -0.009704 
PRIMCOORD
36 1
Li	      4.23276      4.05938      0.13378        -0.027932      0.021720     -0.002106
Li	      6.16259      4.07055      2.13078        -0.056329      0.033295      0.005336
Li	      8.33818      4.08231      4.13032        -0.026046     -0.020200      0.040607
Li	      4.15547      5.92173      2.12712         0.051830      0.008913     -0.021642
Li	      2.25598      4.08644      2.04024        -0.021062     -0.033811     -0.008623
Li	      4.34179      4.02191      4.10480         0.011407     -0.002116      0.004566
Li	      6.24961      4.09713      6.10336        -0.037154     -0.052078      0.009954
Li	      2.21848      4.02717      6.28117         0.058010      0.022974     -0.055924
Li	      4.24968      6.02182      6.23383        -0.010023     -0.014412     -0.035739
V	      8.25989      2.06646      6.38754        -0.073009      0.188913     -0.117925
V	      0.09871      4.05774      4.24089        -0.044986      0.043290      0.073277
Fe	      4.18678      4.11754      8.22308         0.036527     -0.004442      0.177989
Cu	      6.33068      6.06768      8.24953        -0.073749     -0.016562      0.006551
Ni	      2.15244      6.08499      4.14465         0.084468     -0.079446      0.009228
Ni	      4.24409      2.05245      2.11821        -0.064948     -0.071855     -0.093442
Ni	      6.28736      2.07375      4.15353        -0.007905      0.000513      0.104944
Ni	      6.37670      6.00099      4.23152        -0.066142      0.146238     -0.148253
Ni	      8.42441      6.04442      6.22294         0.134942     -0.062767     -0.024918
O	      2.15715      2.02075      1.91758        -0.142826     -0.005347      0.084868
O	      4.19140      3.97374      2.08827         0.020012      0.215827      0.001243
O	      4.20450      2.00515      4.17852         0.107682      0.019341     -0.017692
O	      6.32084      4.07109      4.11548         0.036432     -0.144979     -0.022203
O	      6.44300      2.02092      6.23279         0.071858     -0.020842      0.097869
O	      8.43425      3.87981      6.23047        -0.006968     -0.070792      0.039410
O	      1.90767      4.02243      4.20425         0.043768     -0.006526     -0.018621
O	      4.23637      6.26555      4.11290        -0.010106      0.026637     -0.006330
O	      4.22199      4.01436      6.33954         0.022547      0.084759     -0.264218
O	      6.40741      6.04785      6.25099        -0.129619      0.029984     -0.101510
O	      6.19092      4.09505      8.54406         0.125881      0.057571     -0.107069
O	      8.36281      6.13873      8.31945        -0.101360     -0.232212      0.032922
O	      2.14247      6.32304      6.14192        -0.037499     -0.099694      0.196803
O	      4.08520      8.16019      6.04743        -0.001541     -0.026541      0.091720
O	      4.33991      6.09754      8.26634         0.075577      0.088247      0.052244
O	      6.34378      8.05752      8.35181         0.073260     -0.042656     -0.148039
O	      6.39039      5.97872     10.33583        -0.073746     -0.084976      0.180679
O	      8.48805      8.11115     10.43035         0.058749      0.104029     -0.015954
