# total energy = -93.05999792 eV
 
CRYSTAL
PRIMVEC
2.034869 4.034105 2.034547 
2.070769 -4.069900 2.071093 
4.145220 0.000264 -4.145277 
PRIMCOORD
16 1
Li	      6.14658     -0.03555      1.97942         0.051802     -0.004075      0.225521
Li	      4.14588      1.97829      1.93098        -0.048909      0.121749      0.056302
Li	      4.09954     -0.01776     -0.03947        -0.168931      0.026334     -0.041682
Li	      5.99247      1.97889      0.08355        -0.047754      0.165840      0.019649
Mn	      8.16082     -0.03546     -0.03361         1.427763     -0.026070      0.062180
Mn	      4.12908     -2.03249      1.98331         0.099291     -0.812835      0.436239
Ni	      6.09570     -2.03208      0.01666         0.338344     -0.413171     -0.101916
Ni	      6.12078     -0.01757     -2.05823         0.177394      0.060365     -0.649872
O	      6.27886     -0.00330     -0.07244        -0.162095      0.280028      0.410519
O	      3.92526      1.94587     -0.03904         0.223517      0.260731      0.058801
O	      4.13535     -0.03185     -2.21636        -0.509806     -0.096787     -0.320297
O	      4.03795     -0.13216      2.13988         0.127198      0.349791      0.231847
O	      4.10088     -1.98187      0.13703        -0.282263     -0.135783     -0.497263
O	      2.01898      2.07393      1.89859        -0.209803      0.430318      0.280823
O	      1.92287      0.09622      0.02410        -0.541219      0.072822     -0.208541
O	      2.16340     -2.10982      2.04354        -0.474530     -0.279256      0.037691
