# total energy = -198.68716738 eV
 
CRYSTAL
PRIMVEC
0.019338 6.132542 6.277118 
6.320791 -0.022627 6.318435 
4.203939 4.106469 -0.004897 
PRIMCOORD
36 1
Li	      8.45764      8.16006     12.44363        -0.009976      0.028425      0.000770
Li	      4.31076      8.11123      8.44637         0.029302     -0.011058      0.049546
Li	      8.36882     10.14148     10.36429        -0.030678      0.011975     -0.037571
Li	      6.44281      8.21040     10.45917         0.011018      0.026169     -0.011977
Li	      4.20125      2.04626      6.27232         0.031002     -0.025614     -0.023084
Li	      6.30048      4.08968      6.21842         0.002346     -0.015369     -0.008470
Li	     10.37184      8.14858     10.55073        -0.031892     -0.002956      0.016062
Li	      8.34297      8.25486      8.52024        -0.036838      0.018107      0.019061
Li	      6.22001      6.22373      8.36829        -0.030030     -0.005122     -0.008191
V	      6.31976      6.13881     12.45785        -0.162990      0.033377     -0.004418
V	      8.27470      4.07013      8.40183         0.083756      0.001198     -0.109828
Fe	      4.30519      3.98933      4.19697        -0.012986      0.020900     -0.100004
Cu	      6.31390      8.16875      6.42352         0.142367      0.006918     -0.010685
Cu	      4.28997      6.14388      6.34754        -0.028858      0.038271     -0.055646
Ni	      6.38987     10.20493      8.42073         0.028310      0.038045      0.040684
Ni	      4.21492      6.13318      2.11599        -0.054976      0.043538     -0.033532
Ni	      8.47081      6.20711     10.49410        -0.027820     -0.074012     -0.003672
Ni	      6.35766      6.13604      4.23231         0.086583     -0.015440      0.022510
O	      4.17982      6.13786      8.25518         0.114017      0.015453      0.098377
O	      6.36024      8.19881      8.36470        -0.039182     -0.112492     -0.000681
O	      8.44603      8.13886     10.48318         0.002792      0.171903     -0.006714
O	      2.08184      2.19079      2.15270         0.073235      0.037831     -0.078649
O	      4.19314      4.10139      2.09822        -0.061525     -0.056509     -0.068737
O	      4.17866      2.09727      4.24304         0.050834     -0.227463      0.047353
O	      6.26368      4.11818      4.19596         0.123323     -0.076797      0.102588
O	      6.34162      1.80346      6.40042         0.031540      0.026996     -0.072453
O	      8.62723      4.02663      6.49851         0.009929     -0.011445      0.040131
O	      2.17791      4.13290      3.97642        -0.060274     -0.015551      0.033507
O	      4.22488      6.09284      4.22605         0.036036      0.088232     -0.017705
O	      4.09528      4.15825      6.17133         0.091812      0.012351      0.171752
O	      6.28532      6.24344      6.25064        -0.109073     -0.164527      0.123246
O	      6.51693      4.07015      8.30866        -0.096758      0.090410     -0.016288
O	      8.47887      5.91516      8.41510        -0.033040      0.070893     -0.087823
O	      1.96151      6.07404      6.31457        -0.028453      0.064840     -0.031852
O	      4.31052      8.31540      6.29250        -0.053850      0.002438      0.006560
O	      6.32583      6.11959     10.70631        -0.039004     -0.033917      0.015835
