# total energy = -198.42747000 eV
 
CRYSTAL
PRIMVEC
-0.023657 6.474712 6.229880 
6.154287 0.015625 6.191643 
4.116211 4.304089 -0.003558 
PRIMCOORD
36 1
Li	      8.15850      2.25219      6.25983         0.022303     -0.032874      0.064836
Li	      6.09374      4.39863      2.13095        -0.033943      0.117172     -0.076474
Li	      0.12932      2.20420      1.98461         0.096523      0.012823      0.015929
Li	      8.15117      4.20947      8.18579        -0.014295     -0.076253      0.083213
Li	      6.15867      6.35786      4.05172        -0.041345     -0.026314     -0.063088
Li	      4.20603      4.28153      4.05542        -0.048171      0.036036     -0.018807
Li	      4.17574      2.07151      6.16723         0.000726      0.039829      0.057921
Li	      6.23276      4.16412      6.22123        -0.068912     -0.047861      0.076001
Li	      6.14086      6.45118      8.30447         0.008766      0.015877      0.008801
V	      2.05652      6.33666      4.04014         0.135000     -0.017423     -0.053973
V	      4.17275      6.34390      6.27816        -0.130417      0.042810     -0.076262
Fe	      4.03722      2.29918      2.09053        -0.101507     -0.135273     -0.050671
Cu	      8.09227      4.40006      4.27455        -0.026485      0.122013     -0.204709
Cu	      6.17156      2.25444      4.19266         0.003670     -0.141947     -0.219927
Cu	     10.21936      8.63827     10.31044         0.069352     -0.037278      0.118842
Ni	      6.12021      0.17466      6.25751         0.214801     -0.081935      0.185405
Ni	      6.11953      8.64472      6.24126         0.037755     -0.056061      0.054554
Ni	      8.18356      8.62973      8.29333        -0.014998     -0.049976     -0.049510
O	      6.06398      4.36684      8.43706         0.140705      0.047078     -0.172099
O	      2.16447      2.15703      2.09602        -0.326890     -0.041726     -0.025571
O	      4.11219      4.20925      2.03521         0.022834      0.199689      0.078969
O	      4.13671      2.06668      4.07318         0.010378     -0.164668      0.023555
O	      6.20375      4.19294      4.13864         0.007297      0.057940     -0.042690
O	      6.15901      2.17279      6.14842         0.001085      0.117787      0.151401
O	      8.23899      4.36023      6.14340         0.059926      0.017238      0.070580
O	      1.90647      4.50124      4.16459         0.036539      0.132212     -0.081460
O	      3.92609      6.34294      4.28415        -0.014654     -0.066593     -0.055467
O	      4.06291      4.50910      6.23972         0.043870     -0.003308     -0.065348
O	      5.93413      6.53497      6.12069         0.070140     -0.041182     -0.010552
O	      8.22306      6.52576      8.47491         0.002091     -0.030850     -0.041799
O	      2.14579      6.45692      6.07693         0.028700      0.009931      0.054011
O	      4.09557      8.49058      6.12729        -0.022387     -0.099457      0.028110
O	      4.05477      6.51738      8.07617         0.003009     -0.042424      0.061179
O	      6.09635      8.57060      8.28115         0.108901      0.046529      0.072776
O	      6.37540      6.68629     10.44301        -0.100792      0.150564     -0.083087
O	      8.32331      8.57346     10.31967        -0.179576      0.027876      0.185411
