# total energy = -197.07937197 eV
 
CRYSTAL
PRIMVEC
0.000942 6.634367 6.178886 
6.071527 0.011658 6.168531 
4.060032 4.429327 -0.005296 
PRIMCOORD
36 1
Li	      4.02913      2.07522      2.31178         0.017874     -0.090277      0.001335
Li	      8.09078      4.45753      4.13470        -0.032237      0.082419     -0.087473
Li	      6.08274      2.35772      4.16557         0.094490      0.043541     -0.172949
Li	      6.07747      6.49070      4.14332         0.015864     -0.121833      0.017807
Li	      4.19616      4.19528      4.18416        -0.046423      0.021635      0.002189
Li	      6.19773      4.28444      6.02475        -0.108856      0.064977     -0.068138
Li	      8.11692      6.78591     10.22562        -0.088434      0.012919      0.062489
Li	      4.00580      6.67479      6.03429         0.012402     -0.135062      0.126140
Li	      4.08690      4.57420      8.34674        -0.105663      0.172909     -0.077302
V	      2.12683      4.31911      2.12578         0.192948     -0.055872      0.304820
V	      6.11317      8.86959      6.38000         0.674358      0.233201      0.210011
Fe	      5.97423      6.55280      8.25496        -0.201783      0.347461     -0.535164
Cu	      6.08599      6.64569     12.27840         0.101981     -0.029403     -0.192883
Cu	      6.16643      4.44230      2.20548         0.219417     -0.068920     -0.267520
Cu	     10.07638      6.71111      8.24948         0.055801     -0.181620      0.098684
Cu	      4.07993      2.14566      6.07446        -0.250776      0.110031      0.029733
Ni	      2.06600      8.82421      6.13989         0.085922     -0.097254      0.029369
Ni	      6.00360      4.43539     10.20329        -0.433357      0.323844      0.095722
O	      4.08839      6.67765      8.17790        -0.244749      0.035965      0.027875
O	      8.20700      8.80916     10.33119        -0.836808      0.123931      0.022250
O	      1.93881      2.45808      2.04217        -0.094050      0.091694     -0.044330
O	      3.88429      4.34989      2.23493        -0.024461     -0.050325     -0.176470
O	      4.08967      2.20912      4.23783         0.048627     -0.006632      0.158903
O	      6.10674      4.44307      4.05669        -0.030710      0.021475      0.429476
O	      6.07038      2.02863      6.27245        -0.397878      0.198931      0.288645
O	      8.19850      4.26741      6.31021        -0.119914     -0.028417     -0.035753
O	      1.85864      4.49750      3.92981         0.813732     -0.014682     -0.140828
O	      4.00525      6.97088      3.98743         0.244760     -0.885942     -0.148998
O	      3.75227      4.67048      6.04991        -0.045031     -0.029510     -0.017198
O	      6.12692      7.01072      6.17665         0.137786     -0.238496     -0.277589
O	      6.15017      4.59621      8.04008        -0.083825     -0.215058      0.134863
O	      8.05079      6.39876      8.04287         0.602144      0.142894     -0.247619
O	      1.94052      6.55373      6.38925        -0.078736      0.121117     -0.111322
O	      4.23090      8.99094      6.12396        -0.246980     -0.142739     -0.226752
O	      6.13274      8.73871      8.14398        -0.113495     -0.138326     -0.018137
O	      6.07748      6.43568     10.11518         0.266059      0.381423      0.806114
