# total energy = -198.47171453 eV
 
CRYSTAL
PRIMVEC
-0.028154 6.097665 6.395980 
6.400018 0.004625 6.364434 
4.266106 4.043141 0.002974 
PRIMCOORD
36 1
Li	      6.42908      4.08860      2.32354         0.044426     -0.020171      0.041295
Li	      8.35725      4.01748      4.29332         0.106100     -0.007881      0.081595
Li	      6.37468      2.20593      4.33529         0.026968     -0.122303     -0.017408
Li	      4.45336      4.04071      4.38293        -0.007953     -0.010510      0.001928
Li	      4.15464      2.12783      6.36992        -0.013631     -0.047038      0.009972
Li	      6.30515      4.06368      6.30807         0.036590     -0.055590      0.027358
Li	      2.21963      4.03142      6.38584         0.063617      0.090875     -0.026729
Li	      4.24021      4.06299      8.38126        -0.014293     -0.011201     -0.015537
Li	      6.38382      5.99596      8.30383        -0.002316      0.003586      0.010648
V	      4.44207      8.03158      8.67094         0.224506     -0.123826      0.203426
V	      8.40659      6.20463     10.52831        -0.089407      0.266575     -0.142711
Fe	      4.31826      5.97175      6.35569        -0.340981      0.081414      0.061702
Cu	      2.11389      2.04129      0.06418        -0.068709      0.152238      0.029734
Cu	      6.42107      2.00609      8.41911        -0.139117      0.106752      0.068021
Cu	      2.10661      4.01258      2.13621         0.036077      0.326019     -0.484467
Cu	      6.43379      6.03776      4.33751         0.162300     -0.001108     -0.014193
Cu	      6.36698      4.07386     10.54682        -0.130582      0.187396     -0.110900
Cu	      4.25274      4.03647      0.03996         0.068093     -0.061906     -0.244069
O	      6.17355      8.18513      8.45072        -0.078378      0.013269     -0.049773
O	      6.54371      6.06112     10.76871         0.062121      0.045604     -0.093041
O	      8.56898      8.01278     10.45177        -0.173394     -0.029096     -0.039768
O	      2.36659      2.08340      2.33569         0.126204     -0.408413      0.544588
O	      4.19098      4.03745      2.04986         0.066124     -0.085907      0.238293
O	      4.42146      2.03825      4.04429         0.052629     -0.037276     -0.107995
O	      6.43210      4.11356      4.27994        -0.044163      0.429862      0.084692
O	      6.53433      1.94112      6.44661         0.158317      0.167078      0.001372
O	      8.63946      4.02148      6.48227        -0.301733     -0.044882     -0.095468
O	      1.96221      4.10954      4.18643         0.026583     -0.406923      0.175902
O	      3.95458      6.07730      4.25947         0.053597     -0.182866     -0.001896
O	      4.20894      4.10382      6.42205         0.034333     -0.076232     -0.086973
O	      6.25481      6.12726      6.28682         0.075899     -0.070661     -0.379501
O	      6.52312      3.92417      8.40790        -0.164449     -0.140555      0.063281
O	      8.36738      6.01792      8.69344        -0.069747      0.205047      0.230408
O	      2.12527      6.13815      6.15711         0.227281     -0.061656     -0.044353
O	      4.08608      8.13260      6.59817        -0.048682     -0.174752      0.098916
O	      4.27331      6.22518      8.44351         0.035770      0.105038     -0.018349
