# total energy = -197.54702065 eV
 
CRYSTAL
PRIMVEC
0.003329 6.259798 6.315945 
6.019492 0.026521 6.292574 
4.037008 4.181073 -0.005862 
PRIMCOORD
36 1
Li	      2.06893      6.27555      8.38669        -0.022123     -0.008721      0.005951
Li	      3.99982      8.23582      8.39320        -0.008063     -0.105318     -0.027459
Li	      4.03399      6.25518     10.45702         0.030616     -0.012671      0.014102
Li	      8.01901      4.15014      8.35002        -0.000461     -0.014873      0.024007
Li	      6.01002      6.25098      4.19809         0.030394     -0.004527     -0.015905
Li	      7.95612      6.26118      6.40237         0.018670     -0.027292     -0.001907
Li	      8.05593      6.30110     10.46149        -0.022904     -0.006208      0.016441
Li	      6.05459      8.27779      6.44602        -0.036360      0.002447      0.020684
Li	      6.02650      6.36283      8.28980         0.032042     -0.028538      0.052371
V	      4.07078      4.03832      4.16608        -0.101380      0.138297     -0.010828
V	      0.08643      4.18343      4.23560         0.002940      0.085795      0.002415
Fe	      6.04015      0.07785      6.27777        -0.045784     -0.084215      0.100488
Ni	      2.03368      2.11274      0.08471         0.022915      0.018355     -0.061894
Ni	      6.11633      8.28903     10.46409        -0.035977     -0.025317      0.039676
Ni	     10.04636      6.33105      8.41829        -0.012477     -0.023229      0.043915
Ni	      6.08647      4.24101      6.31176         0.055503     -0.122644     -0.011690
Ni	      4.01195      6.26223      6.34291        -0.153027      0.068136     -0.103168
Ni	      8.04072      8.38671      8.42445         0.099269      0.045250     -0.066603
O	      1.87493      2.09115      2.09120         0.169660      0.016449      0.114355
O	      3.96929      4.33723      2.29625         0.000468     -0.080690     -0.069333
O	      4.00399      2.29065      4.10060        -0.080368     -0.187322     -0.031390
O	      5.88361      4.14580      4.22062         0.009540      0.088501     -0.121855
O	      6.01974      2.09624      6.24501        -0.117005      0.065200      0.043391
O	      8.13583      4.20287      6.31326        -0.148024      0.079770      0.045945
O	      1.93274      4.18513      4.15981         0.120318     -0.011374      0.004714
O	      4.02721      6.32960      4.24251         0.002830      0.016764      0.089738
O	      3.96829      4.23131      6.02022        -0.056680     -0.140465      0.061569
O	      5.96026      6.19303      6.29945         0.032592      0.169670     -0.031787
O	      5.95279      4.11802      8.45372         0.041850      0.090390      0.041286
O	      8.15349      6.49249      8.38253        -0.144622     -0.123067      0.024975
O	      1.94771      6.31567      6.34842         0.280791     -0.041921      0.004527
O	      4.07142      8.41893      6.23037         0.142554     -0.006296      0.086978
O	      4.02062      6.10972      8.31886         0.019059      0.130647      0.047126
O	      6.17845      8.33362      8.49406        -0.196983      0.031727     -0.185263
O	      6.04687      6.20341     10.59801         0.016462     -0.008786     -0.118072
O	      8.21326      8.40211     10.52816         0.053763      0.016075     -0.027499
