# total energy = -215.77131414 eV
 
CRYSTAL
PRIMVEC
-0.004877 6.373348 6.184617 
6.238920 -0.021172 6.200804 
4.140028 4.240562 0.005307 
PRIMCOORD
36 1
Li	      6.25675      4.19790      2.25892         0.013173     -0.026388     -0.000799
Li	      8.16195      4.34008      4.16025        -0.009949      0.142970      0.040969
Li	      6.11066      2.25414      4.07657        -0.009071      0.006521      0.027037
Li	      6.31233      6.26705      4.15484        -0.007255     -0.037754      0.035304
Li	      4.19849      4.18511      4.17539        -0.065584     -0.061765      0.038954
Li	      4.10296      2.21914      6.02200        -0.035037      0.159814     -0.064326
Li	      0.05333      4.17486      4.08654        -0.009916     -0.030300      0.013416
Li	      4.19121      6.26170      6.16400         0.057129     -0.028390     -0.009269
Li	      4.12765      4.26802      8.21195         0.011367      0.071739     -0.031278
Mn	     10.34794      6.35323      8.28408        -0.033326     -0.006587     -0.180874
V	      6.23048      6.33009     12.31115        -0.149380      0.019368      0.152834
V	      2.11942      8.45299      6.13695         0.006723      0.025550     -0.033214
V	      6.17412      6.37952      8.20386        -0.397451      0.191091     -0.137388
Cr	      2.15792      4.25679      6.15333        -0.104014     -0.018285      0.578491
Cu	      6.08303      4.27460      6.07223        -0.031510      0.078201     -0.003158
Cu	      2.12841      6.32606      4.11771        -0.181239      0.179391      0.038258
Ni	      4.17038      2.11819      2.19277         0.058197     -0.068437      0.011422
Ni	      2.03782      4.23307      2.09953        -0.012766     -0.026807      0.049139
O	      2.06932      2.14786      1.94110        -0.129015     -0.123363     -0.055678
O	      4.08278      4.24961      1.89973         0.152367      0.096219     -0.079951
O	      4.14268      2.12177      4.11949        -0.000328     -0.008704      0.088679
O	      6.20840      4.23348      4.20625        -0.053716     -0.000625      0.090045
O	      6.33453      1.94709      6.32496         0.059227     -0.139613      0.003867
O	      8.39991      4.04487      6.19129         0.106756     -0.095041     -0.107946
O	      2.05912      4.35334      4.17523        -0.008364     -0.008268     -0.471292
O	      4.06868      6.41450      3.94280         0.163471      0.002040      0.185727
O	      4.07820      4.29952      6.21887         0.365649     -0.016959     -0.153015
O	      6.20068      6.53190      6.28528         0.062349     -0.126787      0.112200
O	      6.23840      4.28834      8.09374        -0.121995     -0.090450      0.093121
O	      8.17147      6.29588      8.23466         0.166950      0.028957      0.242828
O	      2.01937      6.37292      6.31195        -0.000691      0.065701     -0.288325
O	      4.14911      8.58031      6.25681        -0.169359      0.101900     -0.114611
O	      4.37467      6.35594      8.36112         0.101638     -0.062529      0.007599
O	      6.23607      8.36413      8.19710         0.116707     -0.045116      0.103541
O	      6.31280      6.34473     10.45436         0.047624     -0.058398     -0.172388
O	      8.31814      8.35808     10.54824         0.040640     -0.088896     -0.009922
