# total energy = -217.00227692 eV
 
CRYSTAL
PRIMVEC
-0.000897 6.234606 6.309337 
6.190306 0.005066 6.303630 
4.143433 4.168845 -0.013097 
PRIMCOORD
36 1
Li	      6.15089      0.05580      6.26550         0.036640      0.026901     -0.058449
Li	      2.04542      6.22032      8.36606        -0.044947      0.016441     -0.072435
Li	      8.23654      4.20686      4.28772        -0.019080      0.022075     -0.004042
Li	      0.02724      2.03116      2.05538         0.077980     -0.029007     -0.051504
Li	      8.24595      4.21478      8.31632         0.001799     -0.032574      0.022719
Li	      6.16170      6.22351      4.32941         0.039965     -0.026990     -0.054281
Li	      6.24299      4.17962      6.26202         0.018025     -0.113213      0.022059
Li	      0.10470      4.18390      4.25680         0.045020      0.106149      0.003668
Li	      6.18596      8.28139      6.26700        -0.040755      0.094377      0.007109
Mn	      6.15245      2.05178      4.24391         0.121663      0.196971      0.119153
V	      4.02958      2.12054      2.02715        -0.269020      0.092404      0.129405
V	      4.07550      4.15374      4.16595        -0.151728      0.065033     -0.071601
V	      4.26702      4.15303      8.37962         0.137658     -0.104784      0.164896
Cr	      8.29889      8.40563     12.55649        -0.079190      0.012723      0.022105
Cu	      8.18305      6.11731      6.32133         0.122484     -0.000106      0.041265
Cu	      2.11028      6.25844      4.22836        -0.178746      0.039119     -0.101728
Cu	      4.19737      6.25077      6.24293        -0.042961      0.006392      0.098997
Ni	      6.20160      6.26016      8.38947         0.028294     -0.017788      0.225197
O	      6.15671      6.20934      6.36043        -0.098346      0.006847     -0.137982
O	      2.17938      2.05749      1.96383         0.219095      0.025871     -0.016236
O	      4.12531      4.05591      2.21468         0.012077      0.000802      0.059025
O	      3.99955      2.12468      4.01253        -0.034114     -0.062438     -0.064492
O	      5.95934      4.02642      4.25063        -0.011615     -0.001330     -0.015482
O	      6.28113      2.04616      6.18732         0.015761      0.048850      0.010317
O	      8.24366      4.18142      6.28150        -0.012981     -0.080129     -0.001607
O	      2.20254      4.22891      4.23497         0.127332     -0.235440      0.031503
O	      4.16797      6.11415      4.23269         0.131013     -0.016433      0.156939
O	      4.06716      3.92386      6.42879        -0.004308      0.132980      0.006037
O	      6.04402      4.17547      8.44791        -0.198799     -0.122197     -0.084363
O	      8.26481      6.37278      8.52920         0.099662      0.075779     -0.309576
O	      2.22472      6.40015      6.20123         0.084857     -0.101706      0.352461
O	      4.15165      8.47754      6.42021         0.054221     -0.076607      0.016993
O	      4.11747      6.22975      8.32670        -0.000836     -0.027735     -0.133008
O	      6.18193      8.33924      8.51895         0.027227      0.041828     -0.114666
O	      6.29245      6.36278     10.46077        -0.226975     -0.176174     -0.013876
O	      8.34344      8.33951     10.46112         0.013628      0.213111     -0.184519
