# total energy = -214.05698326 eV
 
CRYSTAL
PRIMVEC
0.020997 6.163942 6.181044 
6.309637 0.027104 6.175269 
4.232676 4.131748 -0.008214 
PRIMCOORD
36 1
Li	      6.34904      6.18822     12.22094         0.003885     -0.009694     -0.005841
Li	      4.23953      6.07477     10.18613         0.023263     -0.000327      0.016678
Li	      6.42796      8.29254     10.25445         0.004695     -0.025812     -0.017070
Li	      2.11288      4.11095      2.15264        -0.030414      0.015618      0.065597
Li	      6.31387      6.08924      4.11050         0.054165      0.110811      0.037789
Li	      4.42551      4.15613      4.13544        -0.047337     -0.016210     -0.005353
Li	      6.28180      4.14695      5.96750         0.033375     -0.014532      0.013800
Li	      4.27478      4.17329      8.30633        -0.016697     -0.030199      0.010743
Li	      6.24865      6.14791      8.33323         0.012338      0.006920     -0.023724
V	     10.51003      6.24503      8.26780        -0.052689      0.071980     -0.237711
V	      8.45739      5.99990      6.05199        -0.048477      0.425373      0.075923
V	      2.19363      4.14928      6.16615        -0.921946     -0.248303     -0.023053
Cr	      6.35755      4.16358      2.10092        -0.159487     -0.060713     -0.017129
Co	     10.52208      8.27200     10.31395         0.034697      0.197289     -0.018486
Cu	      4.29348      6.14673      6.17251         0.037212      0.122267      0.028527
Ni	      8.42024      2.13195      6.12753        -0.044754     -0.057169      0.015376
Ni	      8.34901      6.23043     10.25557        -0.019023     -0.061887     -0.026365
Ni	      4.17765      2.11183      2.11014         0.007881      0.225350      0.073598
O	      2.07919      2.05936      1.99900        -0.010910     -0.040055      0.087215
O	      4.29583      4.27917      2.11818        -0.006072     -0.079935      0.024554
O	      4.26652      2.08901      4.29801         0.009823     -0.016579     -0.049540
O	      6.37649      4.13307      4.03361        -0.017086      0.040624      0.013939
O	      6.16504      2.15025      6.27986        -0.022310     -0.027901      0.015275
O	      8.43795      4.26783      6.17987         0.010614     -0.327751      0.001612
O	      1.95203      4.11161      4.29981        -0.020599     -0.157804     -0.186448
O	      4.15862      6.25812      4.11218         0.129434     -0.001708      0.214432
O	      4.03311      4.13793      6.17041         1.199392      0.108219     -0.021025
O	      6.61232      6.28067      6.24185         0.125277     -0.249645      0.003661
O	      6.35362      3.97403      8.37553        -0.021982      0.002216      0.015233
O	      8.58250      6.19303      8.12434        -0.003543     -0.016059     -0.109967
O	      2.00541      6.10766      6.21002         0.025016      0.559405      0.150898
O	      4.29806      8.20754      6.11215        -0.351049     -0.323992      0.046832
O	      4.13378      6.24422      8.15183         0.105073     -0.131565     -0.203955
O	      6.22466      8.31201      8.07517         0.156557     -0.011391      0.175747
O	      6.36403      6.06228     10.25733        -0.220871     -0.114696     -0.033064
O	      8.58098      8.23182     10.33937         0.042551      0.137853     -0.108700
