# total energy = -212.30867991 eV
 
CRYSTAL
PRIMVEC
0.031941 6.138758 6.211069 
6.319834 0.014306 6.228571 
4.227936 4.118902 -0.005147 
PRIMCOORD
36 1
Li	      8.41808      8.20281     12.30359        -0.061129      0.034108      0.023009
Li	      4.22727      2.06578      2.25007         0.021737      0.017347     -0.025989
Li	      6.36686      8.20646     10.33165        -0.005592     -0.016607      0.008662
Li	      2.15105      4.08364      2.22425         0.002172      0.009040     -0.035479
Li	      2.24744      2.15893      4.15393        -0.040694     -0.027921      0.003577
Li	      4.09709      3.96323      4.15429         0.025296      0.031464     -0.008089
Li	      6.35119      4.16688     10.33994         0.033596      0.032895      0.022891
Li	      8.45233      8.22558      8.36187         0.025289     -0.007744     -0.051828
Li	      6.33148      6.21239      8.27216        -0.014443      0.045838     -0.039342
V	     10.48046     10.18152     12.40481         0.158635      0.002711      0.227928
V	      6.37012     10.16464      8.35432         0.087169     -0.027624     -0.033988
V	      4.24845      6.26092      2.20870        -0.019789     -0.025829     -0.252554
Cr	      4.25915      6.17925      6.21334        -0.012412      0.068728     -0.046752
Co	      6.31962      4.09501      6.09384         0.125294     -0.119551      0.281895
Ni	      4.25385      6.12202     10.30582         0.151947     -0.029327      0.143504
Ni	      4.18479      2.09383      6.18536         0.090140     -0.057760      0.160490
Ni	      8.42226      6.20721     10.31936        -0.105430      0.034493     -0.001690
Ni	      2.17492      4.08448      6.13094        -0.061344      0.077489      0.072073
O	      1.88101      1.90215      2.08001         0.076805      0.037655      0.039011
O	      4.30332      4.18072      1.98152         0.049463     -0.023846      0.209163
O	      4.22977      1.96324      4.21031        -0.036359     -0.043005     -0.188834
O	      6.40896      4.09178      4.05162        -0.107524      0.045004      0.385774
O	      6.30494      1.91150      6.36155         0.074437      0.512669      0.047624
O	      8.59863      4.10056      6.23132        -0.391716     -0.034088     -0.125511
O	      2.10355      4.20188      4.15863         0.022672     -0.174783     -0.158337
O	      4.20645      6.18741      4.04207         0.055759      0.026721      0.032505
O	      4.25947      4.19979      6.19046        -0.008755      0.044260     -0.033419
O	      6.25731      6.16591      6.26561        -0.016801     -0.543909     -0.083847
O	      6.40704      3.91825      8.19570         0.001531      0.124838     -0.223835
O	      8.67941      6.15287      8.24552         0.013146      0.004709      0.115416
O	      2.12818      6.16441      6.26131         0.197301      0.119537      0.084607
O	      4.27151      8.32458      6.25496        -0.012341     -0.282630      0.007432
O	      4.11519      6.20993      8.19894        -0.148517     -0.005787     -0.067085
O	      6.33776      8.36197      8.23213        -0.000355     -0.033159      0.049216
O	      6.36177      6.18272     10.56627        -0.173981      0.027667     -0.474545
O	      8.49389      8.23350     10.33798         0.004796      0.156398     -0.063654
