# total energy = -92.56863177 eV
 
CRYSTAL
PRIMVEC
2.082740 4.080111 2.037849 
4.195091 -2.030404 -2.085962 
0.040518 4.075179 -4.105927 
PRIMCOORD
16 1
Li	      2.05924      2.01622     -0.03927        -0.001826      0.006846     -0.014066
Li	      2.14260      0.05149     -2.07871         0.001610     -0.000622      0.004722
Li	      6.28243      4.09430     -2.10344        -0.026811      0.003708      0.015478
Li	      2.06616      2.05348     -4.05526        -0.005396     -0.013715     -0.001522
Mn	      2.13512      4.06267      1.99935         0.007433     -0.012930     -0.048497
Mn	      4.17294      2.03086     -2.10096        -0.035265      0.020409      0.033125
Ni	      2.14465      4.08613     -2.05929        -0.008990      0.049402      0.080692
Ni	      4.20219      4.09946     -4.14559        -0.058757      0.026883      0.013817
O	      4.14362      3.95174     -2.12879         0.141069     -0.067802      0.117909
O	      4.28394      2.06398     -4.13588        -0.097294     -0.128747      0.005750
O	      4.34018      2.04050     -0.17873         0.034830      0.126341     -0.037178
O	      4.18739      0.01464     -2.07433         0.013267     -0.000621     -0.128935
O	      1.98646      4.08931      0.05963        -0.027387      0.001061      0.083987
O	      2.31782      2.05547     -2.06606         0.061549     -0.130634     -0.005742
O	      2.11566      6.21893     -2.04943         0.084462      0.115135     -0.009801
O	      1.99784      4.08171     -4.09685        -0.082496      0.005287     -0.109738
