# total energy = -93.18775012 eV
 
CRYSTAL
PRIMVEC
2.045146 4.054479 2.044823 
2.081227 -4.090455 2.081553 
4.166156 0.000265 -4.166213 
PRIMCOORD
16 1
Li	      6.20882     -0.03592      1.99946         0.023167     -0.000807      0.112168
Li	      4.18786      1.99832      1.95053        -0.027059      0.061010      0.026216
Li	      4.14106     -0.01794     -0.03988        -0.086747      0.013477     -0.017160
Li	      6.05315      1.99893      0.08440        -0.033992      0.083411      0.020962
Mn	      8.24346     -0.03582     -0.03395         0.714294     -0.010291      0.026667
Mn	      4.17090     -2.05307      2.00339         0.066343     -0.400282      0.190631
Ni	      6.15743     -2.05267      0.01682         0.157448     -0.201251     -0.045334
Ni	      6.18276     -0.01775     -2.07907         0.096049      0.028046     -0.330043
O	      6.34244     -0.00334     -0.07318        -0.032864      0.175525      0.252281
O	      3.96501      1.96557     -0.03943         0.076673      0.125791      0.093122
O	      4.17722     -0.03218     -2.23881        -0.305128     -0.089657     -0.192286
O	      4.07884     -0.13350      2.16155         0.119888      0.141906      0.130433
O	      4.14241     -2.00194      0.13842        -0.196850     -0.062644     -0.205675
O	      2.03942      2.09493      1.91782        -0.065355      0.249623      0.117833
O	      1.94234      0.09719      0.02434        -0.295815      0.062016     -0.161496
O	      2.18531     -2.13118      2.06424        -0.210052     -0.175874     -0.018320
