# total energy = -216.12774725 eV
 
CRYSTAL
PRIMVEC
0.057511 6.186483 6.339670 
6.159146 0.014855 6.381466 
4.106972 4.153042 0.008879 
PRIMCOORD
36 1
Li	      8.28710      8.26565     12.68737        -0.009599      0.051652      0.004515
Li	      4.23197      8.19061      8.53094        -0.018575     -0.072414     -0.053794
Li	      2.09145      4.14650      2.19029        -0.031943      0.003358     -0.001922
Li	      2.13812      2.07363      4.20176        -0.029342      0.033913     -0.036194
Li	      8.15686      6.27157      6.34967        -0.025067      0.019729      0.006974
Li	      6.19255      4.20075      6.33327         0.051810      0.006629      0.039797
Li	      6.23041      8.27405      6.45838         0.015923     -0.044985     -0.012833
Li	      8.14371      8.31593      8.50265         0.092670      0.035849      0.007597
Li	      6.22905      6.33092      8.47197        -0.006223      0.044777     -0.081939
V	      4.02979      4.03606      0.07960        -0.238430     -0.016695     -0.054933
V	      6.17164      2.22800      8.34281        -0.069956      0.372017     -0.086360
V	      4.26959      6.17161      6.38987         0.167453      0.013865      0.048302
Cr	      4.08204      4.07662      4.24020        -0.008802      0.081247     -0.004009
Co	      6.19701     10.30278      8.44185         0.046056     -0.019455     -0.006398
Co	      0.07203      4.10177      4.23339         0.011823      0.015002     -0.092007
Cu	      4.06183      0.03250      4.22007         0.001899      0.045366      0.070629
Ni	      6.22156      8.27273     10.48224         0.073597     -0.011031      0.108014
Ni	      8.23417      6.23375     10.60882         0.024430     -0.151539     -0.019686
O	      1.83157      1.92790      2.15706         0.002030     -0.082114     -0.026923
O	      4.19296      4.18493      2.12833         0.029159     -0.010055      0.038650
O	      4.13728      2.06423      4.29785        -0.206810     -0.103466     -0.095330
O	      6.16554      4.12250      4.05632        -0.022797      0.082654     -0.083196
O	      6.16687      2.02811      6.54041        -0.008329     -0.028919      0.075225
O	      8.42720      4.16378      6.52214         0.091183     -0.005139      0.075365
O	      2.10442      4.16803      4.19896         0.050927     -0.137924      0.035631
O	      4.10378      6.13899      4.26866         0.109983     -0.065838      0.032201
O	      4.15046      4.25145      6.21370         0.012910      0.005406      0.002009
O	      6.03523      6.20831      6.41044        -0.014308     -0.019566     -0.043285
O	      6.24008      3.99343      8.47146        -0.026285     -0.205317      0.035646
O	      8.45459      6.20981      8.56551         0.106926      0.029334     -0.089179
O	      2.03170      6.21494      6.41547         0.005559     -0.043221      0.190809
O	      4.15371      8.27673      6.33740        -0.030358      0.014664      0.010977
O	      4.01191      6.20645      8.28992        -0.085587     -0.049826     -0.123464
O	      6.20912      8.37316      8.47284        -0.028317      0.105498     -0.045026
O	      6.20112      6.23102     10.75646        -0.110750     -0.080518      0.139164
O	      8.27790      8.35261     10.61628         0.077141      0.187062      0.034973
