# total energy = -214.96667313 eV
 
CRYSTAL
PRIMVEC
-0.005467 6.174936 6.173488 
6.100392 0.000933 6.167499 
4.093647 4.139091 -0.025718 
PRIMCOORD
36 1
Li	      6.06897      6.18906     12.24890        -0.027086     -0.004396      0.029472
Li	      6.07172      8.15385     10.28096        -0.023302     -0.074267      0.043038
Li	      8.07803      4.19338      8.14110         0.046578      0.006164      0.014257
Li	      4.14481      4.12681      4.18701        -0.022130      0.000766      0.028115
Li	      6.07420      4.13266      6.23916        -0.031710      0.021142      0.042074
Li	      6.07383      4.18089     10.20197        -0.007132     -0.024586      0.064622
Li	      6.15893      8.23369      6.18003        -0.005639     -0.073283     -0.051407
Li	      4.09097      6.13885      6.17622         0.067854     -0.012213      0.056342
Li	      6.06589      6.10097      8.24626        -0.074933     -0.025429     -0.025873
V	      8.16175      2.15046      6.09475        -0.083811      0.319341     -0.167759
V	      6.07535      4.12672      1.99461         1.573278     -0.570865      0.023549
V	      2.01026      2.19117      4.20826         0.082017      0.406281      0.471934
Cr	      1.99062      6.12019      4.09558         0.072217      0.071646     -0.516829
Co	      8.17361      6.18443      6.18158         0.542832     -0.375319      0.166355
Co	      8.13266      8.19972      8.17021         0.062372      0.144484     -0.003905
Cu	      4.17598      8.23287      8.19968        -0.058027      0.021451      0.191401
Cu	      6.08686      2.12833      8.24416         0.001685     -0.216326     -0.189317
Ni	      4.14341      6.18815     10.27614         0.132778     -0.099751     -0.082534
O	      2.23859      2.04306      2.04149        -0.451530     -0.092037      0.036225
O	      4.26596      4.24988      2.01921        -1.284483      0.326137      0.103161
O	      4.03373      2.08117      4.25482        -0.067472      0.114856     -1.321177
O	      6.17513      4.34717      3.96156        -0.175467     -0.076352     -0.739998
O	      6.18759      2.08446      6.21731         0.846010      0.005884      0.220468
O	      8.14881      4.13860      6.11674        -0.024977     -0.496287      0.182147
O	      2.04840      4.05011      4.07029        -0.027617     -0.220227      0.018095
O	      4.12436      6.17547      4.08256         0.048400     -0.039809      0.006611
O	      4.06195      3.94383      6.31559        -0.018560      0.968708      0.072613
O	      6.23882      6.19221      6.05073        -1.295250     -0.009791     -0.647698
O	      5.92759      4.05008      8.23512        -0.112124     -0.246761      0.009807
O	      8.03310      6.25693      8.18471         0.017101     -0.142566      1.158364
O	      2.03806      6.25136      6.14023         0.006261     -0.005582      0.848811
O	      3.88228      8.23519      6.16999         0.022893      0.009856      0.029881
O	      3.97200      6.01971      8.21275         0.295621     -0.346874     -0.017454
O	      6.11484      8.35222      8.21495         0.102715      0.838719     -0.092994
O	      6.17023      6.15866     10.26391        -0.102737     -0.018808     -0.012049
O	      8.10349      8.17422     10.27765        -0.026628     -0.083907      0.051649
