# total energy = -215.89942329 eV
 
CRYSTAL
PRIMVEC
-0.035576 6.191902 6.422446 
6.063029 -0.016460 6.403576 
4.079556 4.152787 -0.048032 
PRIMCOORD
36 1
Li	      4.14681      4.13167      0.05416        -0.044574     -0.044866     -0.000773
Li	      2.05122      8.20795      6.50268         0.007920      0.048396      0.002335
Li	      3.99120      2.05733      2.06123         0.005859      0.022047     -0.045895
Li	      4.06722      6.28216     10.58267        -0.051028      0.047429      0.028015
Li	      6.10372      8.20460     10.55911         0.013134      0.028942      0.016831
Li	      2.03626      4.04897      2.12876         0.035874     -0.042209      0.011919
Li	      1.98152      1.98887      4.06737         0.044363     -0.024794     -0.007355
Li	      8.05786      6.25374      6.44741        -0.006520      0.020347     -0.024650
Li	      6.06913      8.32821      6.47671        -0.021682     -0.034968     -0.037486
V	      3.93960      3.90095      4.24591        -0.065214      0.043051     -0.028373
V	      6.23819      4.06014      6.29550        -0.042225      0.004838      0.010432
V	      4.05878      8.36591      4.33570         0.122640      0.047847     -0.048142
Cr	      4.01631      6.21973      6.38733         0.152801      0.012456      0.067215
Co	      4.06682      6.19449      2.11311         0.056643     -0.116813     -0.034025
Co	      6.06797      6.21935      8.52577        -0.097116     -0.007488     -0.129038
Cu	      6.00799     10.30547      8.43375         0.081881     -0.074590     -0.075176
Cu	      8.05343      6.23348     10.69011        -0.021692     -0.049436     -0.040467
Cu	      8.05512      8.29161      8.49821        -0.038776     -0.024100      0.017377
O	      1.96373      1.90346      2.10936         0.010112      0.103732     -0.063160
O	      4.05370      4.11544      2.30208        -0.185770      0.078922      0.090609
O	      4.03040      2.16689      4.29025         0.031593     -0.046509      0.003821
O	      5.99687      4.14974      4.47572         0.043894     -0.000561      0.157231
O	      6.01552      2.28703      6.48536         0.029763      0.113849      0.026606
O	      7.97326      4.17833      6.38037        -0.031721      0.001968      0.045513
O	      1.94546      3.97976      4.20631         0.038997     -0.040817     -0.018583
O	      4.01572      6.19839      4.31221         0.095997      0.028674      0.081302
O	      4.07729      4.20384      6.21426         0.018286      0.109027     -0.137564
O	      6.03635      6.05245      6.57816        -0.104210     -0.063479      0.101697
O	      6.01859      4.23730      8.43951         0.046631     -0.033734      0.032666
O	      8.03763      6.29550      8.61036        -0.015241     -0.006128     -0.054057
O	      2.03779      6.21375      6.27611         0.008054      0.043297      0.185611
O	      4.10468      8.23893      6.25125        -0.028266     -0.103803     -0.022657
O	      4.08410      6.16794      8.41883         0.115702      0.047335     -0.151578
O	      6.11311      8.22758      8.53610        -0.038294     -0.051084      0.014586
O	      6.10714      6.16844     10.51503        -0.113684     -0.016133     -0.040886
O	      8.34296      8.43554     10.69231        -0.054129     -0.020645      0.066100
