# total energy = -215.04749949 eV
 
CRYSTAL
PRIMVEC
0.008808 6.302738 6.369278 
6.199359 0.035583 6.342799 
4.150306 4.201590 0.006186 
PRIMCOORD
36 1
Li	      4.15317      2.10959      2.24670         0.080683      0.039953      0.020151
Li	      4.11419      0.12185      4.21990         0.005950     -0.028117      0.033947
Li	      8.22281      4.36904      8.50859        -0.085468      0.013303      0.160014
Li	      4.08669      4.16243      4.42559        -0.056710     -0.130698     -0.049174
Li	      3.98309      2.27514      6.32518         0.010069     -0.038280     -0.062734
Li	      6.07807      4.38908      6.41122         0.085308     -0.054371     -0.006615
Li	      2.18188      6.24705      4.15559        -0.080167     -0.113291      0.035513
Li	      6.34352      8.22528      6.34209        -0.154957     -0.002870     -0.164211
Li	      6.30851      6.27503      8.25082        -0.040143     -0.002705     -0.021868
V	      4.18179     10.45444      6.35822         0.002386     -0.083947     -0.028395
V	      8.27268      2.22352      6.32647         0.028535      0.134270     -0.136972
V	      2.17670      6.31221      8.52245        -0.181512     -0.111948      0.191913
Cr	      6.13936      2.13167      4.23080        -0.109338      0.114834     -0.059191
Co	      0.14812      4.15561      4.17317        -1.546208     -0.008911     -0.084674
Co	      8.26446      8.34654      8.40489         0.279883     -0.958338     -0.244081
Ni	     10.28743      6.34478      8.51224         0.129839      0.024850     -0.102408
Ni	      2.13950      2.12202      4.30335         0.135840      0.255883     -0.157082
Ni	      4.23104      6.22088      6.29333        -0.066022      0.306079      0.008935
O	      2.05524      1.98028      2.04878        -0.025577     -0.065442     -0.086698
O	      4.30165      4.19318      1.89799        -0.014869      0.088126     -0.133030
O	      4.18966      2.09946      4.21131         0.172157      0.029407      0.086778
O	      6.19126      4.15315      4.06460        -0.051053     -0.088743     -0.019777
O	      6.28548      2.03506      6.29283         0.056207     -0.008881      0.066233
O	      8.36018      4.05265      6.46973         0.141377     -0.099830      0.065967
O	      1.95746      4.22209      4.17475         0.269046     -0.240851     -0.039910
O	      4.19572      6.37413      4.22584         0.137672      0.897320     -0.065579
O	      4.10909      4.25631      6.41832         0.045877     -0.149379      0.096250
O	      6.19636      6.30411      6.30610         0.088561     -0.086758      0.170367
O	      6.01530      4.19415      8.56046         1.499447      0.390217      0.871589
O	      8.28832      6.47414      8.50312        -0.256117     -0.093576     -0.119419
O	      2.05113      6.46732      6.44381        -0.025343     -0.012818      0.022889
O	      4.08470      8.47149      6.30634         0.167617     -0.055836     -0.436053
O	      4.00503      6.21815      8.43862        -0.069685      0.297166     -0.080363
O	      6.30507      8.48023      8.59346        -0.911236      0.360093      0.119058
O	      6.20194      6.38224     10.83000         0.111308     -0.414775      0.047955
O	      8.26194      8.47057     10.75970         0.226643     -0.101135      0.100675
