# total energy = -215.47342385 eV
 
CRYSTAL
PRIMVEC
-0.016912 6.279475 6.315081 
6.047007 0.014410 6.280936 
4.063912 4.195752 -0.022112 
PRIMCOORD
36 1
Li	      4.07574     10.45503      6.33367        -0.040315      0.050543      0.019740
Li	      3.99890      6.33214      2.28733        -0.010026     -0.118650     -0.117319
Li	      5.92105      6.41171      4.23605         0.128720      0.072522     -0.055466
Li	      3.96372      4.39986      4.27996        -0.035775     -0.085780     -0.071212
Li	      8.00897      6.39540      6.36153         0.097012     -0.079465     -0.044868
Li	      5.96946      4.31546      6.33803         0.106831     -0.091747     -0.026046
Li	      4.14922      8.15842      4.08116         0.004862      0.082505     -0.040669
Li	      2.20877      6.16355      4.15722        -0.097343     -0.048345     -0.080922
Li	      4.08819      6.17885      6.03296        -0.031115      0.011390      0.085079
V	      2.07140      8.35209      6.29880        -0.025390      0.032299     -0.003556
V	      5.97511      4.19879      2.03882        -0.008307      0.070721      0.089125
V	      4.06138      0.05644      4.25985        -0.080531      0.009107     -0.005093
Cr	      6.06574      2.08905      4.22604         0.028098      0.080885      0.018991
Co	      4.02105      2.09245      2.09743        -0.023614      0.064335     -0.218429
Co	      2.01845      4.25654      2.17167         0.135931      0.073435     -0.094834
Co	      6.05841      6.29560      8.33528        -0.059975     -0.043359      0.010826
Cu	      2.02591      4.12588      6.12435         0.051747     -0.030696      0.005608
Ni	      4.10701      4.11119      8.31716        -0.070257      0.073226      0.315248
O	      2.09587      2.13086      1.97943        -0.571984     -0.185204     -0.109021
O	      4.01609      4.01103      2.10886         0.147225      1.190450     -0.046547
O	      4.05989      2.00151      4.07310         0.075472     -0.334021      0.869987
O	      6.20855      4.10798      4.07323         0.035386      0.002082      0.154465
O	      6.25206      2.09314      6.20782        -0.004539      0.033335     -0.098350
O	      8.12547      4.12184      6.18525        -0.042702     -0.043750     -0.148439
O	      2.00662      4.20368      4.01057         0.033927     -0.086961      0.142495
O	      4.07449      6.28473      4.13600         0.036854      0.006546      0.102440
O	      3.95795      4.16839      6.36957        -0.139165      0.093846     -0.328221
O	      6.03139      6.38107      6.45861        -0.052496      0.078494      0.118286
O	      6.12989      4.39936      8.34361        -0.159371      0.051169     -0.090148
O	      7.94835      6.23378      8.37588         0.018675      0.063293     -0.094240
O	      2.00844      6.34196      6.43962         0.008146      0.039278     -0.076966
O	      3.97984      8.39422      6.44295        -0.031179     -0.116830     -0.567566
O	      4.01126      6.35309      8.51299         0.054336     -0.955845      0.224139
O	      5.98000      8.33132      8.53087         0.576303     -0.003119      0.095564
O	      5.91722      6.36060     10.38394         0.006575      0.012901      0.001536
O	      8.07201      8.47739     10.52964        -0.062017      0.031411      0.064382
