# total energy = -218.37938012 eV
 
CRYSTAL
PRIMVEC
0.033885 6.372053 6.163406 
6.199600 -0.001483 6.198866 
4.135189 4.274077 -0.002617 
PRIMCOORD
36 1
Li	     10.23327      4.38038      6.27915        -0.066352      0.032747     -0.087686
Li	      8.16365      2.25175      6.23569         0.001295      0.072268     -0.034786
Li	      4.22651      8.49074      8.22573        -0.058225     -0.127444     -0.042761
Li	      8.23897      4.35300      4.25036         0.078581     -0.013502     -0.002907
Li	      6.13565      2.10453      8.15158        -0.053445      0.134327      0.001666
Li	      6.26675      4.14114      6.20603        -0.021731      0.058216      0.038893
Li	      2.20428      6.40607      4.06676         0.025835      0.066724     -0.075667
Li	      6.24064      8.50782      6.20089         0.005201     -0.161774     -0.108531
Li	      6.25709      6.39028      8.15576         0.000939     -0.093880     -0.040046
V	      6.17453      4.51663     10.36972        -0.090110     -0.090759      0.028175
V	      2.06124      6.33274      8.12045        -0.810611      0.163849     -0.376740
V	      6.19924      6.33409      4.11622        -0.234228      0.127529      0.966113
Cr	      4.18121      4.22789      8.18344         0.393101     -0.195410      0.073181
Co	      6.21964      2.09789      4.19067        -0.046128     -0.034241      0.271342
Co	      4.11964      4.24017      4.14116        -0.105602      0.128426      0.436370
Co	      8.29419      6.37344      6.21343        -0.158708      0.033206     -0.092462
Cu	      8.28175      4.29227      8.17983        -0.118332      0.095077     -0.084311
Cu	      4.17891      6.39470      6.20347        -0.202257      0.087395     -0.457009
O	      2.08571      1.95654      2.23049         0.088934     -0.825499     -0.670709
O	      4.19148      4.20742      2.12524         1.210926     -0.031116     -0.168324
O	      4.06564      2.14203      4.23728         0.110090     -0.095623     -0.148685
O	      6.26087      4.33425      3.99406        -0.013891     -0.157940     -0.058873
O	      6.10215      2.12166      6.13660         0.138849     -0.016414     -0.081245
O	      8.25115      4.42079      6.28755         0.019733     -0.055544     -0.181218
O	      1.91562      4.11826      3.99190         0.171406     -0.080457      0.126092
O	      4.21662      6.35074      4.23521         0.063790     -0.023019     -0.529803
O	      4.14383      4.06213      6.19549        -0.015635     -0.108884     -0.041727
O	      6.25862      6.39072      6.01173         0.669756      0.013996     -0.090699
O	      6.20023      4.21722      8.43238        -0.251293     -0.003405     -0.070698
O	      8.26902      6.52461      8.14174        -0.023695      0.077100      0.039553
O	      2.12159      6.39012      6.32876        -0.167612     -0.004177      0.516712
O	      4.17276      8.59452      5.92634         0.015352      0.108019      0.141700
O	      4.12520      6.28386      8.13303        -0.378889      0.028853      0.908541
O	      6.28002      8.61975      8.29979        -0.110060      0.715214     -0.137986
O	      6.27231      6.27137     10.27103         0.024865      0.171476      0.020454
O	      8.45904      8.52413     10.23787        -0.091845      0.004667      0.014079
