# total energy = -218.35910255 eV
 
CRYSTAL
PRIMVEC
0.060103 6.251950 6.178932 
6.345727 0.058812 6.180272 
4.269109 4.207898 0.000669 
PRIMCOORD
36 1
Li	     10.37356      4.25751      6.15728        -0.060285     -0.049924      0.074019
Li	      8.43865      2.34758      6.14881         0.029554     -0.053201      0.051563
Li	      4.25337      2.12896      2.07023         0.039926      0.004376     -0.038964
Li	      8.59124      4.16659      4.30241        -0.011638     -0.029875     -0.066387
Li	      8.44310      4.30992      8.08643        -0.000057      0.009355      0.082979
Li	      8.59212      6.13280      6.27636         0.051817     -0.029028      0.020860
Li	      6.30806      4.34903     10.19475        -0.001883      0.052841      0.036288
Li	      6.42114      8.37630      6.19524        -0.042072      0.006651     -0.012619
Li	      6.43713      6.23576      8.22619        -0.001491     -0.004280     -0.033107
V	      2.17125      6.22476      8.16937        -0.023638     -0.127966     -0.043555
V	      4.22454      4.15550      4.19649        -0.031816     -0.061599     -0.183834
V	      4.30849      6.52078      6.18598        -0.013498      0.354535     -0.026215
Cr	      2.16238      2.10895      4.12849         0.072733      0.060338      0.043278
Co	      6.51953      8.19035     10.40890         0.077984      0.122322      0.037760
Co	      6.35801      2.14290      8.20300         0.022972     -0.076223     -0.098425
Co	      8.44604      6.37294     10.27098        -0.299793     -0.212567      0.124319
Ni	      6.52242      4.19715      6.22286        -0.089908      0.055581     -0.049636
Ni	      4.32973      4.19269      8.23450        -0.126304      0.043576     -0.034831
O	      2.02671      1.92122      2.13316         0.001991      0.069370      0.004469
O	      4.37241      4.30433      2.19813         0.042633      0.043329     -0.066517
O	      4.18743      2.25738      4.09602        -0.038082     -0.031855      0.057935
O	      6.29917      4.24088      4.06514         0.013885      0.074513     -0.027252
O	      6.34410      2.15290      6.24928        -0.026145     -0.112638     -0.053742
O	      8.47666      4.24156      6.18986         0.134471      0.015481      0.006670
O	      2.30111      4.14241      4.11530         0.032476     -0.094765     -0.061137
O	      4.37024      6.24388      4.10523        -0.061341     -0.018540      0.064055
O	      4.32025      4.36140      6.03201        -0.010102      0.084212      0.054574
O	      6.27229      6.31467      6.12916         0.021508      0.033208     -0.005669
O	      6.34280      4.06250      8.22316         0.138832     -0.037477      0.166062
O	      8.69412      6.37132      8.28599         0.006474      0.012096     -0.046644
O	      2.31112      6.24699      6.22943         0.034542      0.051205     -0.047002
O	      4.32498      8.27265      6.16622        -0.009232     -0.232751     -0.052069
O	      4.17627      6.28968      8.10243         0.013292      0.085446      0.043410
O	      6.45296      8.58139      8.30747        -0.055275      0.008556     -0.015234
O	      6.36021      6.36626     10.25266         0.255822     -0.111930     -0.009871
O	      8.45781      8.37450     10.28033        -0.088354      0.097627      0.104471
