# total energy = -221.05194424 eV
 
CRYSTAL
PRIMVEC
0.065022 6.275572 6.272172 
6.258634 0.068238 6.269797 
4.211375 4.221477 0.006270 
PRIMCOORD
36 1
Li	      2.14745      0.08209      2.19333        -0.024633      0.014446      0.045350
Li	      6.40890      8.43859     10.40786        -0.050278      0.034209     -0.042887
Li	      4.22933      6.28394      2.18243        -0.030702     -0.001349      0.067784
Li	      4.29718      4.32294      4.13572        -0.027477      0.022160     -0.028732
Li	      6.21149      4.22311      6.23356        -0.020814     -0.071206     -0.039927
Li	      8.44103      6.45038     10.34697         0.051731     -0.038217     -0.045963
Li	      4.28319      6.30216      6.29461        -0.000872      0.071464     -0.063082
Li	      4.30797      4.28266      8.45731         0.033998     -0.010628      0.013756
Li	      6.26404      6.28636      8.43625        -0.001825      0.030557      0.060358
V	      6.24072      0.17149      6.21934         0.118918     -0.411985     -0.091708
V	      8.28294      4.31551      8.38126         0.165102     -0.179141      0.187830
V	      6.48231      8.42793      6.49707        -0.471967      0.550023     -0.008381
Cr	      8.31941      4.24017      4.16473        -0.022342      0.165956     -0.100475
Co	      2.21421      8.26493      6.24829         0.066865     -0.067599     -0.036877
Co	      4.23979      8.35244      8.39751         0.041938      0.060095     -0.055738
Co	      6.26684      6.30377      4.16895         0.105983      0.267687     -0.073807
Co	      8.37274      6.39581      6.32206         0.175751      0.126207     -0.042859
Ni	     10.49946      8.42261     10.41599         0.080659     -0.049492      0.007908
O	      2.11943      2.17821      2.02108         0.181794     -0.167743      0.755299
O	      4.04914      4.14086      1.95979         0.006305     -0.398562      0.001099
O	      4.02363      2.05337      4.31764        -0.088710     -0.086221     -0.576465
O	      6.31666      4.34398      4.23475         0.062714      0.229576      0.027161
O	      6.26640      1.98535      6.23410         0.230351     -0.053874      0.044541
O	      8.45235      4.20626      6.28595         0.079708      0.030669     -0.050693
O	      2.12183      4.08778      4.07279         0.062149     -0.220569      0.101749
O	      4.39770      6.34619      4.18513        -0.011862     -0.118192     -0.011183
O	      4.03483      4.30285      6.28880         0.037310     -0.187734      0.079383
O	      6.31559      6.60925      6.29128        -0.256775     -0.233862     -0.610159
O	      6.46674      4.24026      8.28616        -0.126587      0.029250     -0.191055
O	      8.42683      6.23411      8.28733        -0.082538     -0.049032      0.397937
O	      2.04736      6.12487      6.21336         0.001413      0.106991      0.034763
O	      4.39816      8.53777      6.23119        -0.106768      0.043166      0.075085
O	      4.24642      6.36046      8.46946        -0.039176      0.506653     -0.045188
O	      6.34685      8.46667      8.24400        -0.013311     -0.084914      0.060594
O	      6.22123      6.29954     10.53218         0.006387      0.142728      0.096682
O	      8.44609      8.49098     10.48928        -0.132438     -0.001516      0.057904
