# total energy = -216.00033795 eV
 
CRYSTAL
PRIMVEC
0.013126 6.212493 6.299073 
6.185466 0.011838 6.298969 
4.143462 4.162087 -0.011751 
PRIMCOORD
36 1
Li	      4.12705      4.15847      0.05806         0.015101      0.000972      0.020469
Li	      0.03784      2.11541      2.14947         0.020072      0.064372      0.023674
Li	      8.17333      4.15637      8.40613        -0.108423      0.025911     -0.022863
Li	      4.13826      4.21794      4.08297        -0.057386      0.050110      0.053184
Li	      6.20073      4.14940      6.45674         0.014804     -0.008659      0.011109
Li	      6.22394      4.18326     10.32818         0.042764     -0.010129      0.012345
Li	      8.26584      6.22606     10.44383        -0.004565     -0.005395     -0.008952
Li	      4.16777      6.20899      6.31990         0.013054     -0.005958     -0.038483
Li	      6.18154      6.06221      8.44822         0.074646      0.038233     -0.033365
V	      2.11885      8.23420      6.34578         0.036726     -0.015738     -0.043032
V	      8.29720      6.21682      6.41449        -0.042853      0.023359      0.296739
V	      2.02895      4.15912      6.25331         0.023045     -0.077692     -0.059404
Cr	      6.20216      8.30836     10.46119         0.003672     -0.113461      0.029560
Fe	      4.19974      6.19701     10.46082        -0.115205     -0.024660      0.085976
Co	      6.02627      6.21147      4.17379        -0.168709      0.034586      0.119808
Cu	      6.13321      4.19889      2.11319         0.064893     -0.031401      0.002053
Ni	      4.13391      2.14386      2.10032        -0.044356     -0.066879     -0.009258
Ni	      4.23661      4.17517      8.38793        -0.123552     -0.116647      0.052059
O	      2.10375      2.17819      2.00027        -0.139071     -0.008109      0.134817
O	      4.23284      4.12165      2.11261         0.008177      0.187682      0.002018
O	      4.12191      2.04000      4.31841         0.049876      0.025972      0.003868
O	      6.26707      4.15217      4.22712        -0.024005      0.069010      0.058656
O	      6.20435      2.08056      6.16831        -0.009498      0.018975     -0.085068
O	      8.27394      4.07537      6.22664         0.031379      0.123526     -0.022585
O	      2.07115      4.16053      4.44197         0.003229     -0.003679      0.065995
O	      4.27521      6.21988      4.19673         0.166838      0.007541     -0.023026
O	      4.01499      4.02844      6.33457         0.103631      0.061840     -0.088701
O	      6.31389      6.33951      6.22800        -0.067205     -0.105858     -0.031777
O	      6.16504      4.15905      8.40206         0.133366     -0.039464     -0.021674
O	      8.32096      6.18755      8.18185        -0.004428     -0.049040     -0.209670
O	      2.10461      6.35453      6.21330        -0.040492     -0.021789     -0.026797
O	      4.14030      8.28861      6.33640         0.042412      0.021938     -0.058351
O	      3.99547      6.24303      8.47012         0.083819      0.021468     -0.092327
O	      6.24010      8.24308      8.28654        -0.002790     -0.091664     -0.007394
O	      6.13719      6.34328     10.43904         0.084722      0.041588     -0.034705
O	      8.20926      8.33604     10.57084        -0.063690     -0.020862     -0.054898
