# total energy = -218.11050200 eV
 
CRYSTAL
PRIMVEC
0.056416 6.100844 6.602670 
6.114809 0.045435 6.614610 
4.058142 4.055809 0.050183 
PRIMCOORD
36 1
Li	      4.00254      4.07548      0.22171        -0.026886      0.021426      0.070644
Li	      6.03869      4.03839      2.31186         0.058487      0.008080     -0.024614
Li	      6.13224      8.11195     10.97664        -0.007155      0.059860     -0.026432
Li	      2.13541      4.11530      2.34646        -0.085673     -0.027406      0.037820
Li	      2.05751      2.14849      4.41539         0.014788     -0.078247      0.054974
Li	      4.05223      4.12035      4.31104         0.114357     -0.081829      0.023535
Li	      8.15751      6.05788      6.66920         0.048348      0.012098     -0.002726
Li	      4.14379      6.14302      6.65263        -0.012471     -0.023326      0.100545
Li	      8.13202      8.17241      8.86848        -0.002956      0.004430     -0.031424
V	      2.11518      8.00374      6.69815        -0.075627      0.181170     -0.045198
V	      8.06761      4.11027      4.43474        -0.079682      0.013001     -0.026265
V	      5.96890      4.09317      6.63568         0.137666     -0.018328     -0.163887
Cr	      4.05745      2.11326      2.27241        -0.036114     -0.061987      0.083013
Fe	      6.26990      6.13239      8.80659        -0.180279     -0.110552      0.083187
Co	      6.12721      2.07627      8.79914        -0.192969     -0.176523      0.029285
Cu	      0.08393      4.02362      4.39771         0.003909     -0.021620     -0.012024
Cu	      2.12331      6.07351      4.42484        -0.035530      0.018841     -0.009862
Ni	      2.09301      4.10041      6.59200         0.061726     -0.004632      0.060454
O	      1.99544      2.07217      2.02518         0.054819      0.069901      0.164584
O	      4.07495      4.11349      2.27870         0.063466      0.191530     -0.032259
O	      4.06916      1.95698      4.27717         0.026679      0.118280      0.124739
O	      6.23260      4.01535      4.57759        -0.127645      0.025908     -0.053208
O	      6.15897      2.10197      6.79950        -0.045503     -0.072319      0.011890
O	      8.05263      3.97286      6.45458         0.012833      0.056902      0.087053
O	      2.01378      4.15918      4.55547         0.050300     -0.084534     -0.095803
O	      4.15334      6.16522      4.14358        -0.011246     -0.038842     -0.095666
O	      4.19914      4.10340      6.51342        -0.138693      0.003765     -0.002450
O	      6.14451      6.05525      6.77124         0.017821     -0.003025     -0.156112
O	      6.14052      4.06576      8.56061         0.062645     -0.019756      0.031995
O	      8.20275      6.15050      8.84235         0.256229      0.007271     -0.268918
O	      2.10022      6.21146      6.62025        -0.026810     -0.178345      0.154738
O	      4.05377      8.15888      6.86817         0.033966      0.036388      0.007384
O	      4.14015      6.17661      9.00078         0.034934     -0.056595     -0.095244
O	      6.11566      8.09763      8.75937         0.008003      0.164765      0.040193
O	      6.02128      6.06155     10.90619         0.096249      0.037974      0.034034
O	      8.24434      8.12560     11.21873        -0.071985      0.026277     -0.057974
