# total energy = -93.21519001 eV
 
CRYSTAL
PRIMVEC
2.065701 4.095228 2.065374 
2.102144 -4.131566 2.102473 
4.208027 0.000268 -4.208084 
PRIMCOORD
16 1
Li	      2.16640     -0.00031     -2.12799        -0.030727      0.001692     -0.094026
Li	      2.20676     -2.05654     -0.07544         0.024916     -0.058399     -0.023331
Li	      4.22471     -0.01830     -0.04068         0.070989     -0.014791      0.032784
Li	      4.10973     -2.05591     -1.97927        -0.002304     -0.073571      0.018912
Mn	      0.03412     -0.00048      0.00560        -0.703577      0.008467     -0.035885
Mn	      2.15301      2.03702     -0.05861         0.019000      0.379396     -0.239912
Ni	      4.17968      2.03744     -2.08531        -0.159596      0.183140      0.052961
Ni	      2.09964     -0.01838      2.08701        -0.032413     -0.027244      0.259157
O	      6.47056     -0.00340     -0.07465         0.151083     -0.001848     -0.029687
O	      4.04511      2.00528     -0.04023        -0.190595     -0.124992      0.153219
O	      4.26161     -0.03282     -2.28403         0.069818     -0.077995      0.052698
O	      4.16124     -0.13620      2.20522         0.116476     -0.207523     -0.063911
O	      4.22609     -2.04238      0.14121        -0.066800      0.065205      0.296671
O	      2.08062      2.13726      1.95656         0.211682     -0.096429     -0.179442
O	      1.98158      0.09915      0.02484         0.254007      0.025181     -0.074197
O	      2.22946     -2.17424      2.10594         0.268042      0.019711     -0.126012
