# total energy = -218.73015675 eV
 
CRYSTAL
PRIMVEC
0.012129 6.238647 6.277914 
6.186147 0.031830 6.258162 
4.130314 4.152149 0.014990 
PRIMCOORD
36 1
Li	      4.13255      4.15257      0.08764         0.123730      0.052022      0.096075
Li	      6.17317      4.18172      2.14763        -0.039603     -0.006244      0.021269
Li	      8.16113      4.19590      4.17912        -0.081440      0.017713     -0.078541
Li	      6.20290      2.15833      4.23578         0.030849     -0.017561      0.092300
Li	      4.15306      6.16532      2.06602         0.000749     -0.078394     -0.074186
Li	      2.13073      4.13419      2.05978         0.004654      0.017738      0.030391
Li	      6.20847      4.14834      6.19374        -0.043160     -0.038219      0.009756
Li	      4.14529      8.30343      4.26055        -0.006926      0.030244      0.035209
Li	      4.12614      6.25040      6.30436        -0.033106     -0.016078      0.040890
V	      8.18603      2.26833      6.29265        -0.068760     -0.246753     -0.009651
V	      2.10191      6.25690      4.23987        -0.000140      0.025102      0.044288
V	      6.21277      6.13557      8.35056        -0.042687      0.069385     -0.005722
Cr	      4.11416      2.07128      2.10031         0.077017     -0.062037     -0.006346
Fe	      4.22547      4.14056      4.14680        -0.133342      0.060914      0.128538
Co	      6.16548      8.32392      6.29152         0.035430      0.055021      0.021358
Ni	      6.14895      6.24920      4.18102        -0.085720      0.038364     -0.015596
Ni	      4.20690      2.06155      6.24550         0.101454     -0.025574      0.010934
Ni	      4.09662      4.24099      8.35410        -0.005767     -0.011142      0.034542
O	      2.10826      2.09587      2.00999        -0.013922     -0.038021     -0.077384
O	      4.11749      4.05494      2.19613        -0.028845      0.017263     -0.114327
O	      4.09920      2.12110      4.16383         0.081062     -0.061456     -0.063543
O	      6.12692      4.24145      4.22550         0.105618     -0.154286     -0.010256
O	      6.30568      2.07053      6.29583         0.050817      0.053022     -0.034973
O	      8.29660      4.05889      6.23178         0.005651      0.160072      0.001384
O	      2.07538      4.20071      4.34386         0.001260      0.057848     -0.009491
O	      4.00675      6.19571      4.13691        -0.061408      0.056069      0.001184
O	      3.96595      4.12478      6.27223        -0.068510      0.147906     -0.118551
O	      6.23522      6.38887      6.30868        -0.091922      0.041813      0.063122
O	      6.15466      4.35988      8.29555         0.187322     -0.115303     -0.065095
O	      8.20269      6.31340      8.38541         0.008439     -0.155021      0.033346
O	      2.06032      6.21158      6.16391         0.015689     -0.037259     -0.035487
O	      4.11084      8.31334      6.37389         0.101640     -0.009820      0.011970
O	      4.22887      6.27610      8.39664        -0.012183      0.164304      0.014996
O	      6.16529      8.22100      8.24004        -0.083691      0.008791     -0.044180
O	      6.40112      6.27295     10.29512        -0.055666     -0.030487      0.024544
O	      8.27876      8.24843     10.53431         0.025416      0.030062      0.047235
