# total energy = -219.70686320 eV
 
CRYSTAL
PRIMVEC
0.006290 6.196412 6.389563 
6.094865 0.006370 6.388942 
4.057437 4.125204 0.009618 
PRIMCOORD
36 1
Li	      0.03657      6.18498      6.38514        -0.016470      0.000037      0.009413
Li	      2.03688      8.21240      6.38284         0.048896     -0.014366      0.010254
Li	      6.14085      8.24090     10.66522        -0.015687     -0.006012      0.002113
Li	      6.05876      2.11132      8.47101         0.008877     -0.041299     -0.073414
Li	      8.08600      4.14226      8.56905        -0.009932     -0.032769      0.015438
Li	      2.02800      2.09490      4.27104         0.013122      0.008513     -0.008076
Li	      8.08101      6.21498     10.61533        -0.048077     -0.014027     -0.010290
Li	      1.99384      4.15758      6.36835        -0.015229      0.009283     -0.037302
Li	      6.13530      6.16377      8.49282        -0.024699     -0.002200      0.023571
V	      8.14948      4.13821      4.32132        -0.032919      0.142456      0.028484
V	      2.04677      6.24679      8.42946         0.024978      0.100535     -0.020740
V	      8.13284      6.20472      6.49870        -0.079882     -0.049582     -0.123393
Cr	      4.07835      8.20591      4.23923         0.071023      0.004250      0.034526
Fe	      3.92664      4.15285      4.23243         0.152404     -0.078762      0.008443
Co	      4.09936      6.21580      6.36317        -0.052459     -0.073457     -0.039383
Co	      8.11486      8.22567      8.55597        -0.046109     -0.055673      0.125901
Cu	      4.10052      8.28428      8.44811        -0.033849      0.043466     -0.033474
Ni	      6.10902      4.12437      6.49643         0.043533     -0.013311     -0.018340
O	      2.09536      1.89613      2.12826        -0.108271      0.048265      0.001044
O	      4.13285      4.09355      2.23417        -0.069514      0.174724     -0.026343
O	      4.06544      2.05107      4.42273         0.014407      0.030776      0.068624
O	      6.20953      4.13302      4.20661        -0.055701      0.009660     -0.043252
O	      5.90793      2.09230      6.40452         0.137539     -0.115691      0.011471
O	      8.11692      4.21112      6.29158         0.118803     -0.057166      0.016625
O	      2.04022      4.14328      4.20397        -0.220882     -0.008297     -0.014672
O	      4.05682      6.16694      4.43345         0.040707      0.064774      0.056046
O	      4.08015      4.17869      6.30390        -0.110686      0.042324      0.050168
O	      6.14275      6.16959      6.41177        -0.055879      0.115828      0.045380
O	      6.01910      4.09105      8.57905         0.000993     -0.002893      0.086079
O	      8.08689      6.23879      8.39910        -0.026871      0.025582      0.162377
O	      2.16171      6.20124      6.51489        -0.028964      0.009838     -0.054866
O	      4.09293      8.10042      6.24294         0.005834      0.037225     -0.102258
O	      4.07027      6.20327      8.51039         0.094290     -0.159627     -0.093419
O	      6.10779      8.44544      8.55626         0.226896     -0.042265     -0.001732
O	      5.94298      6.13785     10.64462         0.071931     -0.035035     -0.014767
O	      8.15385      8.35856     10.66672        -0.022156     -0.065101     -0.040236
