# total energy = -219.09402855 eV
 
CRYSTAL
PRIMVEC
-0.003294 6.307794 6.301106 
6.041070 0.016450 6.281354 
4.050396 4.214494 -0.011474 
PRIMCOORD
36 1
Li	      8.03894      8.42784     12.53878         0.017668      0.132192      0.074122
Li	      2.00161      6.31791      8.35900         0.021698      0.060605     -0.158303
Li	      8.04448      4.18014      4.22546        -0.053745      0.003522      0.173454
Li	      0.02024      2.10454      2.08783        -0.000365      0.118068      0.027883
Li	      8.08232      4.21698      8.31533        -0.068300      0.003944     -0.233985
Li	      6.07017      6.28727      4.20670        -0.054519      0.006937      0.222426
Li	      8.08044      6.29588      6.25697        -0.173014     -0.060022      0.074323
Li	      2.04139      6.35875      4.25875         0.047091     -0.078664      0.086231
Li	      2.01923      4.27911      6.29747         0.099832      0.029961     -0.073757
V	      3.89988      2.11818      2.08242        -0.344283     -0.191614     -0.787095
V	      3.98782      4.26813      4.17862        -0.506461      0.467272      0.451341
V	      6.17068      6.28852      8.36707        -0.214101     -0.484210     -0.516556
Cr	      4.06341      8.37081      4.21223         0.530299     -0.375538      0.233775
Fe	      6.06214      0.11047      6.27374        -0.701603     -0.387717      0.234318
Co	      6.10858      8.42125     10.52423        -0.648266      0.242670     -0.024490
Co	      6.14013      4.18057      6.27828        -0.144248      0.128479      0.212533
Ni	      3.95434      6.33009      6.27430         0.125577     -0.098714      0.110804
Ni	      3.99434      4.25754      8.37236         0.216869      0.016912     -0.444432
O	      2.15465      2.07492      2.08697         0.116604     -0.013904      0.210082
O	      4.03717      4.10709      2.12158         0.041110      0.062338      0.197575
O	      4.04223      2.24608      4.04886         1.394043     -0.256199      0.447375
O	      5.88732      4.22205      4.18176         0.446657     -1.297321     -0.312937
O	      6.03627      2.10687      6.27139         0.208617      0.512804     -1.600648
O	      8.11571      4.25416      6.26496         0.194407     -0.066050     -0.062095
O	      2.12395      4.19449      4.21912        -0.152011     -0.068182     -0.089783
O	      4.05404      6.31000      4.20912         0.107408      0.041235     -0.301469
O	      4.09999      4.26361      6.23882        -0.056521     -0.209247     -0.153805
O	      6.03156      6.18627      6.45521         0.086286      0.193814     -0.275996
O	      6.05071      4.31351      8.48607         0.033508     -0.163767      0.446496
O	      7.93514      6.39241      8.37268         0.481759      0.012486      0.167603
O	      1.90799      6.31780      6.32097         0.333607     -0.001902     -0.042167
O	      4.04466      8.45774      6.30035         0.085393     -0.063508      0.022038
O	      4.11165      6.38785      8.36255        -0.054284      0.128308      0.350470
O	      5.97452      8.29976      8.40721         0.064158      0.397497      1.182667
O	      6.04628      6.21106     10.44133         0.018055      1.144302      0.034252
O	      8.12793      8.43039     10.38500        -1.498924      0.113213      0.117748
