# total energy = -221.43414729 eV
 
CRYSTAL
PRIMVEC
0.012331 6.409696 6.174156 
6.204035 0.007045 6.179973 
4.138888 4.279508 0.001784 
PRIMCOORD
36 1
Li	      4.12428      4.22866      0.16840        -0.017694     -0.003053     -0.073495
Li	      2.14220      8.53902      6.22816         0.001978      0.003049      0.014267
Li	      6.15140      4.29053      2.02636         0.074706      0.000425     -0.007530
Li	      4.15761      8.63327      8.15670        -0.037331     -0.004807     -0.015313
Li	      4.04803      6.24428      2.03826        -0.010187     -0.005107     -0.005219
Li	      8.39281      4.36908      8.20478         0.005910     -0.003290     -0.004429
Li	      8.38709      6.48757     10.19231         0.055588      0.014694      0.058258
Li	      4.13863      6.49821      6.24538        -0.046594     -0.001333     -0.012304
Li	      8.27003      8.57370      8.27978        -0.000131      0.032156     -0.010568
V	      2.03515      2.14110      3.94354         0.004444     -0.015454     -0.206678
V	      6.18356      4.22433      6.26194         0.063349     -0.034978      0.076343
V	      2.04371      4.46974      6.21505         0.028845      0.180551     -0.103616
Cr	      6.21403      8.54287     10.27682         0.015837      0.227292      0.034060
Fe	      6.20288      6.42240      8.26044        -0.007989     -0.180080     -0.132322
Co	      8.26980     10.66594     10.28891         0.068085     -0.048798     -0.158313
Co	      4.09655      4.38102      3.98105         0.017527     -0.023176      0.138153
Co	     10.26585      8.54733     10.27839         0.023690     -0.164908      0.013690
Cu	      8.29716      6.38634      6.27052         0.085929     -0.011471      0.040492
O	      2.12426      2.10653      2.20644         0.007049      0.004238      0.209459
O	      4.14457      4.26302      2.08374        -0.065014      0.045493      0.488619
O	      4.13387      1.97198      4.21472        -0.019997      0.015238     -0.068438
O	      6.29284      4.26309      4.15309        -0.213092      0.061599     -0.020252
O	      6.13907      2.25065      6.11355         0.091501     -0.107411      0.005489
O	      8.04219      4.17227      6.07903        -0.026663     -0.022715     -0.037727
O	      2.04819      4.10425      4.22913         0.216872     -0.019788     -0.058284
O	      4.27929      6.44765      4.10529        -0.061169     -0.072795     -0.009971
O	      4.26356      4.38644      6.08209        -0.144279      0.133391     -0.348793
O	      6.27513      6.39928      6.12917        -0.117942      0.028276      0.044643
O	      6.19685      4.35237      8.16320         0.028982      0.074069     -0.019225
O	      8.18726      6.41327      8.22939        -0.024148     -0.003516      0.117155
O	      2.13670      6.21647      6.14471        -0.008369     -0.136382     -0.036142
O	      4.30525      8.53625      6.15054         0.015097      0.038272     -0.071856
O	      4.22952      6.41584      8.37363         0.023404     -0.005368      0.108185
O	      6.23064      8.48660      8.19146         0.034898     -0.026914      0.034394
O	      6.09267      6.51710     10.30822        -0.047926     -0.030125     -0.005386
O	      8.21154      8.69251     10.31089        -0.015166      0.062726      0.022654
