# total energy = -221.12871644 eV
 
CRYSTAL
PRIMVEC
0.031174 6.174959 6.282323 
6.335214 0.006798 6.306456 
4.206066 4.115179 0.022192 
PRIMCOORD
36 1
Li	      2.24183      8.20373      6.27853         0.026854      0.067307     -0.099682
Li	      4.24777      8.27937      8.29846         0.048040     -0.007925     -0.015410
Li	      4.26911      6.17985     10.40476         0.052233     -0.073325     -0.021488
Li	      4.20530      6.09817      2.13773         0.002135      0.169567     -0.038553
Li	      2.22631      4.14588      2.11345        -0.024617     -0.015570     -0.026302
Li	      4.22182      4.13752      4.02472        -0.065339     -0.029549      0.030467
Li	      4.23142      8.25110      4.26514        -0.078500      0.014657      0.002506
Li	      6.25065      8.25765      6.28893        -0.051542      0.013458      0.042717
Li	      6.30678      6.15617      8.48852         0.017314     -0.058032      0.018577
V	      6.37023      8.25637     10.43571         0.433532     -0.248367     -0.287224
V	      2.09238      2.15829      4.07332        -0.005849      0.176639      0.000198
V	      8.39997      6.14663      6.34798         0.024938      0.460110      0.173118
Cr	      4.22059      6.19862      6.32126         0.029629      0.040812      0.287359
Fe	      2.12727      6.09047      4.18005         0.024090      0.319285     -0.221392
Co	      4.25627     10.16439      6.37364        -0.039893      0.239590      0.128247
Co	      6.32379      4.11442      6.31926        -0.130811      0.102855      0.580380
Co	      4.45658      4.12637      8.40717        -1.627224      0.089067      0.679477
Ni	      6.32128     10.28773      8.38029         0.072824     -0.064407     -0.099026
O	      2.12582      2.04267      2.31126         0.061536      0.008955     -0.076791
O	      4.30466      4.13663      2.03199        -0.130772     -0.126901     -0.455132
O	      4.18791      2.10043      4.34201        -0.064794     -0.018234      0.053366
O	      6.34594      4.13271      4.28985        -0.007574      0.061423      0.327163
O	      6.22500      2.14101      6.17079        -0.056904      0.318536      0.156620
O	      8.43409      4.33068      6.38211        -0.223100     -0.325454     -0.031263
O	      2.12041      4.09093      4.16511        -0.009952     -0.173217      0.051210
O	      4.27706      6.18236      4.27866         0.059618     -0.048130      0.021286
O	      4.16091      4.02276      6.39083         0.713740     -0.123774     -0.696042
O	      6.32045      6.12164      6.16996         0.037834     -0.337683      0.085523
O	      6.27113      4.12851      8.32593         1.182975     -0.055522     -1.203920
O	      8.42225      6.22450      8.42600         0.111275     -0.114178     -0.100101
O	      2.24133      6.14755      6.21185        -0.223765     -0.028200      0.085585
O	      4.22761      8.15707      6.31078         0.046494      0.043507     -0.071378
O	      4.17866      6.11676      8.31635         0.205444     -0.087785     -0.214819
O	      6.32824      8.23570      8.63083        -0.160155     -0.029607      0.099068
O	      6.42493      6.27906     10.58093        -0.034778     -0.077855      0.308014
O	      8.33544      8.17840     10.48420        -0.214935     -0.082055      0.527641
