# total energy = -224.41469770 eV
 
CRYSTAL
PRIMVEC
0.001862 6.256061 6.194988 
6.292338 0.036068 6.160916 
4.201376 4.154634 0.017039 
PRIMCOORD
36 1
Li	     10.45676      4.18630      6.15945         0.005338     -0.056807     -0.030203
Li	      8.35566      2.18450      6.10739         0.015116      0.056306     -0.037020
Li	      4.11748      2.12413      2.09565        -0.002714      0.020556      0.013413
Li	      8.32214      4.16160      4.15829        -0.060036     -0.023751     -0.007901
Li	      6.32356      2.15926      4.22334         0.001795      0.096951     -0.033504
Li	      6.31677      6.20666      4.10890        -0.021298     -0.102770      0.013637
Li	      6.37449      4.11180      6.05588        -0.020553     -0.001513     -0.084835
Li	      2.13948      6.29252      4.20340         0.094647      0.074882      0.067711
Li	      4.20043      6.27469      6.11997         0.036589     -0.006219     -0.063747
V	      2.00984      4.25899      6.11046        -0.133076     -0.007396      0.169129
V	      8.39774      8.37782      8.30564         0.347419     -0.223931      0.086043
V	      6.24769      6.30215      8.34665         0.042577      0.008618     -0.289811
Cr	      0.03222      2.06169      2.06874        -0.123739     -0.004746     -0.069216
Fe	      4.28588      2.03292      6.03527        -0.143559      0.079441     -0.010543
Co	      2.14495      0.09839      2.10618        -0.185408      0.078319      0.114987
Co	      2.10944      4.14046      2.08103         0.126116     -0.080910     -0.179159
Co	      4.21285      4.17669      4.14240         0.022445     -0.190120     -0.119301
Co	      4.17306      8.27523      4.18965        -0.268415     -0.285362      0.372351
O	      2.00976      2.19295      2.02638        -0.041894      0.006960      0.015221
O	      4.05508      4.21743      2.20583        -0.028767      0.056123      0.096111
O	      4.19240      2.21587      4.14121        -0.086499     -0.073219     -0.051002
O	      6.14875      4.18356      4.04312        -0.082093      0.056128     -0.009508
O	      6.23230      2.09724      6.23776         0.103174     -0.043147      0.131148
O	      8.39085      4.23899      6.32138         0.018834     -0.018422      0.097174
O	      2.14589      4.17095      4.13566         0.540721      0.004097     -0.150776
O	      4.20215      6.12297      4.06987        -0.012320      0.253955      0.046390
O	      4.12209      4.13729      6.16517        -0.010732     -0.024089     -0.051825
O	      6.37870      6.40145      6.35233        -0.000975      0.006892      0.214065
O	      6.37134      4.19610      8.27663         0.148424      0.174582     -0.588806
O	      8.39197      6.24792      8.21806        -0.073564     -0.068778      0.042433
O	      2.11299      6.07139      6.28170        -0.008622     -0.041101     -0.013536
O	      4.31606      8.29362      6.12482         0.310610      0.059060      0.619279
O	      4.30737      6.19369      8.22305        -0.027494      0.036601      0.037325
O	      6.33668      8.29274      8.18391        -0.138439      0.006822     -0.028876
O	      6.32496      6.26963     10.12423         0.071247      0.163657     -0.028648
O	      8.46338      8.34522     10.22624        -0.414854      0.012330     -0.288196
