# total energy = -214.80447805 eV
 
CRYSTAL
PRIMVEC
0.021783 6.242389 6.250952 
6.314466 -0.000759 6.272949 
4.209048 4.175816 0.000352 
PRIMCOORD
36 1
Li	      0.15476      6.34483      6.22508        -0.007366     -0.044511     -0.044946
Li	      2.13328      6.26254      8.17536         0.035156      0.022108      0.015752
Li	     10.45500      6.26131      8.31463        -0.092329      0.042553      0.098688
Li	      8.41552      4.21307      8.28713        -0.014804      0.009835     -0.011713
Li	      4.32215      2.07273      6.33376         0.005873     -0.042003      0.052043
Li	      4.21139      8.31062      4.17297         0.036948     -0.052456     -0.002793
Li	      2.13593      6.25496      4.28966        -0.019317      0.004750     -0.089295
Li	      2.18699      4.36791      6.23203        -0.043638      0.026568     -0.008110
Li	      4.03751      6.18171      6.21715         0.048958      0.018001     -0.026234
V	      4.16778      2.21354      1.96186        -0.005909     -0.139092     -0.226638
V	      6.23380      6.31285      4.24039        -0.118301     -0.052384      0.007127
V	      6.37312      6.19112      8.27153        -0.035991     -0.079240      0.025026
Cr	      4.21795      4.15444      8.31320        -0.017792     -0.001014      0.032388
Fe	      8.44192      4.15251      4.28332        -0.002743      0.043283     -0.154320
Cu	      6.32637      4.08608      6.30513         0.022381      0.112001      0.117635
Ni	      8.36482      8.24041     12.48933         0.164464      0.078537      0.067665
Ni	      6.29865      2.10223      4.21399        -0.005228      0.002455     -0.047846
Ni	      4.24632      4.16517      4.28311        -0.023874      0.047921     -0.028926
O	      2.10143      6.28520      6.22953         0.004163     -0.098713     -0.003716
O	      2.31868      2.09300      2.18300         0.036463      0.001461     -0.039818
O	      4.24804      3.95974      2.16575        -0.000284      0.151583     -0.112435
O	      4.18986      2.03799      4.07565        -0.065444     -0.044273     -0.021176
O	      6.37004      4.31424      4.05433         0.048357      0.060620     -0.113928
O	      6.33096      2.13064      6.23692        -0.093998     -0.097125      0.153179
O	      8.38271      4.09609      6.20618         0.033798      0.027505      0.144428
O	      2.19371      3.93248      4.23940        -0.060619      0.028973     -0.001790
O	      4.37018      6.18359      4.13130         0.055138      0.109340      0.022169
O	      4.29815      4.14376      6.33127        -0.093240     -0.012844      0.116844
O	      6.31251      6.19201      6.34059         0.031917      0.066220     -0.104693
O	      6.21189      4.27978      8.47267        -0.053817     -0.054199      0.114911
O	      8.29450      6.33021      8.36058         0.052523      0.007812      0.020354
O	      4.18562      8.32150      6.46843         0.047119      0.038021      0.064852
O	      4.31838      6.28853      8.38479        -0.023015     -0.103349      0.014623
O	      6.24185      8.24693      8.35175         0.077048      0.019773     -0.072742
O	      6.24933      6.28956     10.24676         0.010087     -0.064247      0.078651
O	      8.36972      8.41285     10.34781         0.067315     -0.033872     -0.035216
