# total energy = -213.60403234 eV
 
CRYSTAL
PRIMVEC
-0.000225 6.528049 6.139772 
6.261730 -0.054980 6.195437 
4.126064 4.339144 0.011500 
PRIMCOORD
36 1
Li	      0.15604      6.42995      6.17346        -0.068005      0.045535      0.023275
Li	      2.10211      8.43948      6.16851        -0.084635      0.028441      0.036373
Li	      2.06908      6.57011      8.00842         0.004280      0.033091      0.037884
Li	      6.23921      2.06438      4.31707        -0.068165     -0.044253      0.028751
Li	      4.29499      2.10100      6.14714        -0.006351     -0.037864     -0.001956
Li	      2.05290      6.52163      4.29015        -0.016183     -0.100013     -0.058796
Li	      1.90617      4.68838      6.11378         0.048719     -0.009181      0.031858
Li	      3.92074      6.70424      6.16023        -0.000171     -0.040480     -0.000869
Li	      4.24394      4.42782      8.11013        -0.076436      0.057382     -0.070209
V	      8.32435     10.66972     10.29153         0.000696      0.433614      0.068984
V	      4.10313      4.26411      4.25875        -0.011944     -0.051883     -0.209605
V	      6.31876      6.74487      8.12108         0.372416     -0.287466      0.017836
Cr	      6.20598      6.46316      4.19841         0.147858      0.002794     -0.197999
Fe	      6.26414      2.08412      8.17576         0.015431     -0.183352      0.065868
Cu	      8.28315      4.26468      8.25542         0.216040      0.192306     -0.171529
Cu	      4.09822      8.62645      4.23064        -0.037750      0.051772     -0.041334
Ni	      4.10217      8.71799      8.09867        -0.050283      0.075814      0.240515
Ni	      6.27999      4.22615      6.22193         0.074583      0.025255      0.027268
O	      2.04714      6.54774      6.14974         0.005447     -0.021681     -0.046064
O	      2.02417      2.22602      2.18581        -0.046543     -0.269343      0.200898
O	      4.02342      4.37353      2.18021         0.332307      0.070161      0.161622
O	      4.11102      2.22176      4.03463        -0.075408      0.065511      0.099635
O	      6.31623      4.40536      4.06404         0.035007      0.042980      0.020202
O	      6.26073      2.20128      6.29445        -0.007232     -0.035550     -0.118978
O	      8.33035      4.43894      5.90662         0.096243      0.006904     -0.309234
O	      2.20332      4.11178      4.25932        -0.157557     -0.110939      0.309596
O	      4.19409      6.24778      4.06609         0.077682      0.154424      0.053713
O	      4.27251      4.23205      6.03255        -0.052439      0.000953      0.034454
O	      6.23034      6.31536      6.32826         0.019064      0.056530     -0.025217
O	      6.30936      4.18004      8.31876        -0.499012     -0.045301      0.388410
O	      8.15381      6.40902      8.29906        -0.314949      0.220779      0.021043
O	      4.09291      8.72256      6.16465         0.000628     -0.035332     -0.570846
O	      4.32606      6.57594      8.29394         0.021412     -0.031203      0.015484
O	      6.28132      8.47724      8.10644         0.030354      0.194958     -0.038909
O	      6.10062      6.58767     10.05731         0.034205     -0.042415     -0.000861
O	      8.28248      8.93989     10.22465         0.040689     -0.412946     -0.021263
