# total energy = -213.86421406 eV
 
CRYSTAL
PRIMVEC
-0.062252 6.168405 6.189790 
6.479988 -0.044215 6.170677 
4.295749 4.074559 -0.004353 
PRIMCOORD
36 1
Li	      4.25472      4.11595      0.09649         0.103344      0.013483     -0.083083
Li	      6.37225     10.13508      8.21989        -0.090072      0.088772     -0.074645
Li	      4.35138      8.25144      8.21655         0.012827      0.077152      0.022265
Li	      6.30684      2.03639      3.95569        -0.079219     -0.099364      0.055910
Li	      2.26229      4.04903      1.94773         0.046445      0.026860      0.080181
Li	      8.59669      6.06555      6.16282        -0.028153      0.042697      0.005501
Li	      6.46290      8.12480      6.33663         0.059470      0.057753     -0.195407
Li	      4.25013      6.13862      6.33628        -0.085686     -0.040906     -0.175985
Li	      6.28731      6.27269      8.19777         0.057170     -0.080957      0.087754
V	      0.05086      4.14215      4.17614        -0.968535     -0.211754      0.245404
V	      6.39611      4.08332      6.22314        -0.227423      0.268638     -0.226570
V	      8.47885      6.05367     10.31228         1.863201      1.185712      0.203356
Cr	      4.28431      6.08894      2.05840        -0.062814     -0.281183      0.442812
Fe	      2.26104      1.96967      4.07157        -0.226910      0.158367      0.083287
Cu	      2.16312      2.08127      0.04781         0.026077     -0.354538     -0.070516
Cu	      4.22241      6.13557     10.25095         0.136809     -0.002174     -0.051887
Cu	      8.44793      8.22291      8.19017        -0.228246     -0.184581      0.108412
Ni	      4.28616      4.01952      4.10428        -0.258084      0.295341     -0.023449
O	      4.26686      6.10663      8.32605        -0.101638     -0.107586      0.036202
O	      6.45689      8.17885      8.21221         0.320725      0.142842      0.002979
O	      1.98869      2.03335      2.17318         0.026719      0.021622     -0.304588
O	      4.24520      4.13120      2.07935         0.013282      0.024265     -0.180980
O	      4.17856      1.98814      4.09961         0.260554     -0.097575      0.029897
O	      6.28967      4.07710      4.24396         0.124009     -0.216591      0.154749
O	      6.46166      2.13915      6.24948         0.119672     -0.004509     -0.238951
O	      8.46798      3.97698      6.05395         0.093634     -0.016705      0.091976
O	      2.11115      4.15823      4.19628        -0.821130     -0.901227     -0.019634
O	      4.23027      6.20028      4.08622         0.554079     -0.127399     -0.071553
O	      4.42408      4.05312      6.21953         0.128713     -0.086617      0.006880
O	      6.46025      5.94280      6.13125         0.052297     -0.056465      0.146650
O	      6.48406      4.03049      8.29347        -0.048889      0.081246      0.058030
O	      8.72856      6.10372      8.44283         0.074196      0.144850     -0.867449
O	      2.15389      6.27400      5.94410         0.066989      0.172141      0.814549
O	      4.23699      8.21912      5.96827        -0.121198     -0.002661     -0.100865
O	      6.63756      6.09902     10.25126        -0.781240     -0.864898     -0.044015
O	      8.76877      8.07901     10.18659        -0.010976      0.935949      0.052783
