# total energy = -93.12254188 eV
 
CRYSTAL
PRIMVEC
2.075978 4.115602 2.075649 
2.112603 -4.152121 2.112933 
4.228962 0.000269 -4.229020 
PRIMCOORD
16 1
Li	      2.20885     -0.00049     -2.12838        -0.055647      0.006610     -0.192630
Li	      2.23910     -2.05658     -0.06586         0.052056     -0.114087     -0.048204
Li	      4.26685     -0.01848     -0.04109         0.149536     -0.026114      0.056578
Li	      4.16105     -2.05595     -1.98868         0.011419     -0.143777      0.015349
Mn	      0.07634     -0.00066      0.00546        -1.414502      0.014465     -0.066783
Mn	      2.18500      2.03668     -0.04868         0.011891      0.748031     -0.422291
Ni	      4.23188      2.03710     -2.09560        -0.299475      0.350217      0.098654
Ni	      2.14162     -0.01856      2.08679        -0.082701     -0.051780      0.538161
O	      6.53511     -0.00344     -0.07540         0.205909     -0.076926     -0.155704
O	      4.08546      2.02528     -0.04064        -0.310567     -0.241802      0.176969
O	      4.30412     -0.03315     -2.30682         0.237945     -0.073676      0.170516
O	      4.20275     -0.13756      2.22722         0.113303     -0.353991     -0.155128
O	      4.26825     -2.06275      0.14262        -0.018654      0.118108      0.505760
O	      2.10138      2.15857      1.97608         0.353907     -0.264427     -0.311942
O	      2.00135      0.10014      0.02508         0.563163     -0.002706     -0.029520
O	      2.25170     -2.19592      2.12695         0.482418      0.111856     -0.179784
