# total energy = -213.01641071 eV
 
CRYSTAL
PRIMVEC
-0.062669 6.327208 6.188071 
6.230042 -0.058657 6.183775 
4.118946 4.180988 -0.004736 
PRIMCOORD
36 1
Li	      2.17768      6.23009      8.22538         0.470191     -0.398600      0.154940
Li	      4.15228      8.22304      8.21846         0.379892     -0.521335      0.152327
Li	      4.14471      6.20927     10.15596        -0.006471      0.041337     -0.459765
Li	      8.17255      4.28731      8.24473        -0.106911      0.206201      0.133000
Li	      8.19545      6.31174      6.35486        -0.126908      0.157482      0.156782
Li	      6.15058      4.22777     10.18991         0.040703      0.018812     -0.168342
Li	      4.11510      6.24087      6.35304         0.173131     -0.187298      0.359078
Li	      8.22125      8.35672      8.27135        -0.203863      0.296887     -0.025655
Li	      6.15005      6.28505      8.29659        -0.262449      0.183632     -0.001775
V	      4.09034      4.15942      0.05676        -0.271959      0.106518      0.023464
V	      2.04316      8.41352      6.23210         0.655553      0.294291      0.054583
V	      2.10304      2.09314      4.10231         0.113900      0.000408      0.105681
Cr	      4.11169      4.19109      4.04426        -0.013451     -0.096651      0.078208
Fe	      6.13304      4.22319      6.29323        -0.294781      0.306618      0.136574
Ni	      6.14210      8.37652     10.22931        -0.168942      0.043143     -0.426575
Ni	      6.12935      2.12140      8.21926        -0.149129      0.109583      0.205051
Ni	      8.22351      6.24383     10.28025         0.077708     -0.136319     -0.373216
Ni	      6.20126      8.35106      6.28930         0.180447     -0.248517      0.241946
O	      4.13625      6.25960      8.25378        -0.119044      0.032183     -0.035079
O	      2.00475      2.07667      1.95207         0.119842     -0.048141     -0.562862
O	      4.08447      4.27493      1.93801         0.027281     -0.165481     -0.239847
O	      3.96470      2.16816      4.01332        -0.006095      0.091586      0.003942
O	      6.13021      4.24018      4.15117        -0.017302      0.019741      0.083359
O	      6.26066      2.05374      6.13924         0.504804     -0.113730     -0.063191
O	      8.29033      4.01408      6.16884        -0.035886     -0.785711      0.028271
O	      2.09641      4.10665      4.17327        -0.038541      0.050044     -0.046551
O	      4.26952      6.20802      4.06049        -0.060315      0.014539      0.173416
O	      4.15796      4.15690      6.02828         0.046834     -0.010007     -0.193864
O	      6.20444      6.23071      6.02334         0.007584     -0.064011     -0.102428
O	      6.18691      4.13529      8.17702         0.121331      0.119334     -0.131961
O	      8.28736      6.25407      8.32203        -0.205874     -0.061649     -0.075949
O	      1.92722      6.34350      6.17408         0.092426      0.827198      0.149034
O	      4.01523      8.52933      6.20296        -0.884968     -0.161944     -0.016322
O	      6.15245      8.37142      8.26665        -0.070173      0.127342     -0.092434
O	      6.16406      6.33373     10.53539        -0.032748     -0.134964      0.343011
O	      8.20890      8.29498     10.53327         0.064186      0.087478      0.433150
