# total energy = -219.81352246 eV
 
CRYSTAL
PRIMVEC
0.011145 6.321259 6.295217 
6.182364 -0.001637 6.308317 
4.129164 4.230122 -0.008589 
PRIMCOORD
36 1
Li	      8.26121      8.47365     12.51925         0.002283     -0.031443      0.009133
Li	      4.30197      6.29937     10.56484        -0.140141      0.061143     -0.075020
Li	      6.19582      8.26155     10.52133        -0.085537      0.130128     -0.062184
Li	      8.16797      4.24226      8.48702         0.008074     -0.043472      0.077602
Li	      2.08911      2.22166      4.20804        -0.003390     -0.007008     -0.086657
Li	      6.28046      4.41251     10.49424         0.146278     -0.099625      0.061728
Li	      8.10503      6.20740     10.52461         0.183119     -0.058036      0.026795
Li	      2.03893      4.23113      6.20035        -0.008703      0.074863     -0.043345
Li	      6.24792      6.27111      8.59140         0.000627      0.011680      0.027354
V	      6.20006     10.52603      8.40157         0.177289     -0.011294      0.606731
V	      4.17135      6.34275      2.13878        -0.061026      0.245744      0.360116
V	      8.28960      8.42633      8.58916        -0.100323     -0.055977     -0.081885
Cr	      4.14487      8.42458      8.40136        -0.028514     -0.035233      0.234494
Fe	      8.18359      6.29030      6.23334         0.029250      0.305873     -0.353626
Fe	      4.16813      6.38292      6.16782        -0.125947     -0.131724     -0.229470
Co	      4.03968      4.20538      4.20174         0.328302      0.222779     -0.141694
Cu	      6.24501      4.22114      6.27056        -0.115011      0.031424     -0.077414
Ni	      6.17763      6.28026     12.47767         0.222023     -0.147556      0.108549
O	      2.07779      2.01028      2.09209        -0.165033     -0.054469     -0.138373
O	      4.16939      4.14489      1.96242        -0.044184     -0.030442      0.009973
O	      4.12515      2.24727      4.17869        -0.045533     -0.055148      0.098934
O	      6.02720      4.24412      3.92992         0.062656     -0.074862     -0.171625
O	      6.12158      2.14652      6.42896         0.053308      0.057708      0.078198
O	      8.20406      4.34041      6.26277        -0.062493     -0.111750      0.101102
O	      2.21752      4.23299      4.19813        -0.369782     -0.134070      0.007142
O	      4.11390      6.18777      4.15476        -0.086494     -0.001093      0.003240
O	      4.21287      4.26322      6.43503         0.139480     -0.088292     -0.188443
O	      6.18174      6.26120      6.26992         0.052876     -0.057515      0.008458
O	      6.09237      4.11567      8.52941         0.101389      0.106195     -0.020451
O	      8.32720      6.47748      8.32035        -0.078199     -0.089332     -0.000316
O	      2.14452      6.32642      6.46420        -0.094564      0.002266     -0.193375
O	      4.13822      8.34371      6.39519         0.011172      0.090196     -0.094341
O	      4.07344      6.33479      8.36404         0.026576     -0.052834     -0.050305
O	      6.19919      8.53471      8.37146         0.055515     -0.011251     -0.074222
O	      6.20492      6.32524     10.54801         0.003579      0.019365     -0.072327
O	      8.20228      8.48381     10.31713         0.011077      0.023060      0.335523
