# total energy = -221.31462265 eV
 
CRYSTAL
PRIMVEC
0.019235 6.002157 6.222331 
6.510655 0.024069 6.217749 
4.362058 4.020489 -0.006242 
PRIMCOORD
36 1
Li	      6.55338      6.00481     12.37823         0.036722     -0.035852      0.036504
Li	      8.61242      4.03976      4.09209        -0.085125     -0.008378     -0.024955
Li	      2.17448      4.02894      2.17871         0.002195     -0.023654      0.126183
Li	      6.55358      6.02615      4.21471         0.070299      0.040003      0.008055
Li	      4.36668      4.02868      4.20242        -0.132107     -0.023897     -0.008066
Li	      6.45214      4.04604      6.11038        -0.045329     -0.028198     -0.034499
Li	      0.11352      4.01262      4.19358         0.115647     -0.012290      0.017166
Li	      2.25623      3.98857      6.15431         0.030997      0.024608     -0.083079
Li	      4.34151      4.02416      8.26292         0.000071      0.031039     -0.006010
V	      8.70389      2.19656      6.21458         0.041367     -0.167230      0.097860
V	      4.32515      2.10495      2.13237        -0.044203      0.003152     -0.024783
V	     10.78492      6.06388      8.30939         0.000920     -0.278888     -0.102073
Cr	      6.52923      2.03849      4.17867        -0.002555     -0.005575      0.045454
Fe	      4.38863      5.90371      6.16900        -0.067541      0.256409      0.069535
Fe	      6.54311      5.94679      8.24302         0.077067      0.033005     -0.017145
Co	      2.16257      5.93262      4.16960         0.093568     -0.066534      0.017517
Cu	      6.59135     10.01271      8.32789        -0.041952      0.034806     -0.015495
Cu	      4.26792      2.05398      6.15205         0.021834     -0.089206     -0.079495
O	      2.13444      2.00622      2.01912        -0.006718      0.133779      0.040681
O	      4.27228      4.13409      2.05294        -0.069445      0.104455      0.013805
O	      4.50587      2.02396      4.11893         0.025976     -0.032998      0.004977
O	      6.57984      3.99059      4.05478        -0.057283     -0.023531      0.130342
O	      6.72956      2.00334      6.24747         0.054809     -0.011472     -0.032780
O	      8.73837      3.97189      6.15784         0.026889      0.188614     -0.065186
O	      2.14270      4.12896      4.17506        -0.004257     -0.008311      0.003214
O	      4.18105      6.01714      4.09291        -0.161792      0.076164      0.019977
O	      4.34433      4.01536      6.22303         0.005372     -0.078154     -0.013806
O	      6.38520      6.01006      6.28064        -0.072005     -0.001558     -0.173705
O	      6.52935      3.88629      8.28546         0.015503      0.048848      0.000430
O	      8.76845      6.05304      8.18785        -0.137991      0.007777     -0.058073
O	      2.33464      6.11276      6.30847        -0.035203     -0.060258     -0.003921
O	      4.21504      8.01265      6.33764         0.064136     -0.051140     -0.026258
O	      4.53337      6.07559      8.26572         0.107037     -0.061883      0.071421
O	      6.45144      8.01095      8.37402         0.089571     -0.096217      0.028675
O	      6.69973      6.01522     10.26037         0.083126      0.079835      0.005494
O	      8.58844      7.90691     10.46370         0.000402      0.102732      0.032039
