# total energy = -222.72958026 eV
 
CRYSTAL
PRIMVEC
0.007935 6.261102 6.200256 
6.255465 0.007099 6.200931 
4.194635 4.198775 -0.019586 
PRIMCOORD
36 1
Li	      2.12929      8.29497      6.18683         0.036643     -0.076019     -0.057547
Li	      6.26723     10.44237      8.23516        -0.043095     -0.002036      0.034750
Li	      4.18728      2.14037      2.05868         0.040143      0.014889      0.041586
Li	      6.24383      2.16911      4.12605        -0.025257      0.053050     -0.025744
Li	      2.14259      4.18257      2.07316         0.045917      0.024294      0.087015
Li	      4.22769      4.15264      4.11216         0.034670     -0.036689     -0.040052
Li	      6.20668      4.14294      6.15549        -0.099253     -0.048126     -0.061320
Li	      2.13554      6.30098      4.16346         0.035670      0.058740      0.029422
Li	      4.11511      6.28269      6.18454        -0.060916      0.020711     -0.033494
V	      8.32243      4.15798      4.14680         0.062881     -0.059237     -0.117154
V	      2.07201      2.08375      4.09068        -0.027447      0.039617      0.091986
V	      6.30923      6.25399      8.24196         0.007862     -0.055258     -0.025105
Cr	     10.42121      6.29118      8.25181        -0.083213      0.080829      0.020713
Fe	      0.06870      0.01330      0.07680        -0.003118     -0.020517     -0.171686
Fe	      2.13815      4.26212      6.20275        -0.026122     -0.069762      0.031687
Co	      4.19748      8.36891      4.13496        -0.018811      0.042907      0.000649
Ni	      4.20025      2.12830      6.16001        -0.006078     -0.007157      0.032367
Ni	      4.15293      4.18442      8.25019         0.003911      0.012959     -0.001313
O	      1.99972      2.11140      2.24251        -0.024304     -0.011744     -0.040067
O	      4.16029      4.29243      2.01325         0.004976      0.011926      0.120360
O	      4.05983      2.00572      4.10738        -0.005774     -0.008952     -0.144140
O	      6.38321      4.27930      4.12672        -0.014498     -0.045652     -0.027185
O	      6.25122      2.04184      6.26527         0.150550      0.081417     -0.046148
O	      8.43558      4.21819      6.01315         0.008008     -0.081618     -0.021173
O	      1.96386      4.08048      4.18421        -0.048449     -0.032438     -0.073850
O	      4.25207      6.40900      4.06818        -0.030035      0.033877      0.057316
O	      4.11312      4.17348      6.19913         0.081541      0.108181     -0.163738
O	      6.28432      6.31294      6.09229        -0.093917     -0.041092     -0.106565
O	      6.24764      4.19234      8.37508         0.113515     -0.115893      0.048919
O	      8.35275      6.29056      8.22296         0.119935     -0.120582      0.100928
O	      2.05187      6.22377      6.19647         0.089295      0.097809      0.050452
O	      4.24912      8.44149      6.08452        -0.052794     -0.068833     -0.001220
O	      4.29424      6.26061      8.41266        -0.112996      0.097146      0.040494
O	      6.29050      8.24188      8.20454        -0.132202      0.111537      0.089060
O	      6.21585      6.14646     10.32457         0.015595     -0.032647      0.122010
O	      8.48562      8.45635     10.29213         0.057169      0.044359      0.157784
