# total energy = -224.52571578 eV
 
CRYSTAL
PRIMVEC
0.006230 6.278476 6.281971 
6.230546 0.007201 6.280697 
4.146948 4.177959 0.011766 
PRIMCOORD
36 1
Li	      8.29793      8.39032     12.48555         0.009369      0.004274      0.058767
Li	      8.36755     10.32910     10.46043         0.026523     -0.051691     -0.049731
Li	      6.33326      8.33235     10.47531        -0.055255      0.052943     -0.009844
Li	     10.30433      6.27210      8.42077        -0.030817      0.029497     -0.030656
Li	      8.30466      4.27011      8.39983        -0.039685      0.005756      0.015670
Li	      4.12077      4.24149      4.18582         0.029302     -0.059094     -0.035949
Li	      4.15601      6.27022      6.26249         0.009923      0.034854      0.055743
Li	      8.30693      8.31563      8.46070         0.053306     -0.039723      0.012666
Li	      6.28137      6.26647      8.44170        -0.007366     -0.047428      0.032898
V	      6.25227      4.19447      2.22280         0.036740      0.116211      0.029974
V	      4.14264      2.06688      2.19903        -0.042721     -0.061835      0.060085
V	      6.22942      4.14424      6.39511         0.008206     -0.050232      0.285348
Cr	      8.33659      6.32021     10.41347         0.050486      0.013906     -0.047166
Fe	     10.28782      4.24402      6.27525         0.066743      0.027710      0.115707
Fe	      2.16739      4.13014      6.28487        -0.132837     -0.000136     -0.002109
Co	      6.13020      6.30688      4.17340         0.112357     -0.085964     -0.105211
Co	      8.30889      6.26825      6.40532        -0.152287      0.013350     -0.160314
Cu	     10.33596      8.37664     10.47389        -0.002751      0.021893     -0.124671
O	      2.15268      1.98557      2.06328         0.055155     -0.111923      0.037967
O	      4.23058      4.13358      2.03934         0.014985     -0.017387     -0.006786
O	      4.12723      2.13027      4.01518        -0.109643      0.058345     -0.001834
O	      6.20792      4.16808      4.06462         0.001389      0.024940      0.036019
O	      6.21831      2.15741      6.23215         0.129290     -0.070584     -0.022101
O	      8.25084      4.19986      6.23143         0.010363      0.039013     -0.046396
O	      2.00709      4.23725      4.29119         0.129510      0.133967     -0.008754
O	      4.11917      6.37893      4.17163        -0.107131     -0.196128      0.053910
O	      4.19952      4.16442      6.22875         0.063247     -0.067382      0.038576
O	      6.22581      6.22713      6.24172        -0.012183      0.072062     -0.004435
O	      6.24174      4.20152      8.12245        -0.056993      0.028834     -0.304436
O	      8.28735      6.25658      8.44744         0.006273      0.046816      0.181038
O	      2.02999      6.21148      6.36646         0.025600     -0.003272     -0.072866
O	      4.23371      8.44468      6.52570         0.044742      0.027883      0.072277
O	      4.04893      6.38415      8.36578        -0.074259      0.052164      0.004724
O	      6.18382      8.45820      8.34276         0.022813      0.010684      0.003397
O	      6.29335      6.22202     10.57641         0.104066      0.110773     -0.094253
O	      8.39093      8.28927     10.46107        -0.186458     -0.063094      0.032743
