# total energy = -224.24780641 eV
 
CRYSTAL
PRIMVEC
-0.009686 6.253138 6.359824 
6.097242 0.004021 6.346045 
4.064652 4.159757 0.002826 
PRIMCOORD
36 1
Li	      8.12776      8.31860     12.64623        -0.002600     -0.034564     -0.014527
Li	      4.09403      8.28080      8.48137        -0.007520     -0.013578     -0.002487
Li	      4.07834      6.24189     10.52616        -0.016256     -0.015807     -0.106924
Li	      4.08488      4.14066      4.29230        -0.030628      0.016514      0.072639
Li	      4.03941      2.09853      6.30734        -0.054855      0.051633      0.015511
Li	     10.04117      8.35520     10.65486        -0.011841      0.075897     -0.044429
Li	      8.11664      6.29885     10.62871        -0.035967     -0.110724      0.021802
Li	      6.08191      8.35255      6.39812         0.066579      0.019665     -0.011193
Li	      8.06763      8.38324      8.53617         0.050467      0.026945     -0.022475
V	      6.09529      8.28501     10.54136        -0.135910      0.177568     -0.071488
V	      2.05625      4.16288      2.21262        -0.329900     -0.146331      0.745218
V	      6.04177      4.15458      6.30797        -0.112694      0.005557     -0.022099
Cr	      4.05140     10.35535      6.31166         0.188860     -0.027197     -0.059389
Fe	      4.02580      6.24662      2.25849        -0.038685      0.267691      0.064885
Fe	      4.00297      6.40917      6.32300        -0.061691     -0.248889     -0.177132
Co	      2.06966      6.23488      8.46538         0.249950     -0.092249      0.052573
Co	      6.06920      6.29505      8.48482         0.165331     -0.181440      0.009669
Ni	      2.13474      2.07531      4.24021         0.020957      0.062107      0.029043
O	      1.97457      2.14209      2.17587         0.063725     -0.499564     -0.225454
O	      4.01532      4.23690      1.99828         0.466547     -0.144942     -0.025834
O	      4.20462      2.11160      4.25040         0.113083     -0.063734     -0.028887
O	      6.14430      4.12813      4.34590         0.003325     -0.075515      0.098866
O	      6.07914      2.09874      6.35842         0.006031     -0.134594     -0.001170
O	      8.06756      4.13170      6.52862         0.072123      0.019985     -0.101066
O	      2.06591      4.11421      4.02103         0.009691      0.196317     -0.354831
O	      4.09530      6.26074      4.23061        -0.140836     -0.027546     -0.024879
O	      4.24290      4.21875      6.36146        -0.107327     -0.070625      0.018403
O	      6.07091      6.14335      6.29560         0.116918      0.159409      0.148012
O	      6.15352      4.12030      8.36659        -0.172157      0.250962      0.015782
O	      8.14224      6.10070      8.48825        -0.445615      0.487048     -0.032642
O	      2.01274      6.21657      6.35334        -0.118778      0.032793     -0.122149
O	      4.05989      8.35980      6.29958        -0.001157      0.155185      0.065427
O	      4.08171      6.27088      8.30234         0.006652      0.051848      0.218138
O	      6.09016      8.32577      8.58332        -0.008405      0.031802     -0.115378
O	      6.05204      6.32522     10.66907        -0.004926     -0.198197      0.015357
O	      7.91131      8.34914     10.59194         0.237509     -0.003428     -0.026893
