# total energy = -226.98378725 eV
 
CRYSTAL
PRIMVEC
0.013422 6.364916 6.267318 
6.286854 0.042665 6.237585 
4.209743 4.242043 0.010400 
PRIMCOORD
36 1
Li	      6.28499      6.43729     12.41888         0.006362      0.026278     -0.044935
Li	      4.18347      2.15532      2.07397        -0.016037      0.009408     -0.035704
Li	      6.28761      8.45610     10.45842         0.042753     -0.008868      0.021731
Li	      2.09979      4.33354      2.27308        -0.033315      0.032073     -0.015424
Li	      2.09494      2.27174      4.12910        -0.044207      0.006726     -0.040263
Li	      4.05843      4.26015      4.17166         0.017883      0.030933     -0.014365
Li	      8.43293      6.38016      6.32655         0.003530     -0.005394      0.066323
Li	      0.14115      4.26189      4.13652        -0.062198      0.001182     -0.041707
Li	      2.09511      6.20077      4.07971         0.035003      0.039657     -0.012823
V	      8.43635      8.57093     12.44161        -0.072659     -0.068969     -0.115826
V	      6.16796      4.22371      2.14631         0.166369      0.059599      0.076709
V	      4.23160      0.24045      4.14939        -0.031586     -0.408089     -0.064832
Cr	      2.09192      4.24178      6.18254         0.031388      0.107153      0.023777
Fe	      6.24138      4.24322      6.25573         0.071169      0.075664     -0.149827
Fe	      4.23099      6.39226      6.04320        -0.096114     -0.040285      0.156488
Co	      4.17698      6.37773      2.17198         0.060453      0.013841      0.055874
Co	      8.43693      8.42907      8.41957        -0.002091     -0.023410      0.144882
Co	      6.39227      6.37715      8.39276         0.007333      0.019273      0.142842
O	      2.12242      1.99471      1.89833         0.032511     -0.043532      0.001009
O	      4.39648      4.22808      2.12450        -0.105659     -0.073275      0.013536
O	      4.18695      1.97265      4.19928        -0.000997      0.419313      0.015632
O	      6.40989      4.24727      4.14588        -0.052471     -0.030482     -0.019324
O	      6.41796      2.25160      6.27592         0.027651     -0.081676     -0.021494
O	      8.34651      4.17700      6.18362         0.024416      0.059948     -0.044377
O	      2.10928      4.23756      4.26087         0.012226      0.004325      0.074847
O	      4.21981      6.37750      4.19216         0.011304     -0.024114     -0.199957
O	      4.19325      4.33272      6.22559        -0.058260     -0.009723      0.011044
O	      6.22612      6.41990      6.29917         0.087945     -0.006080     -0.017466
O	      6.28277      4.30260      8.22225        -0.043869      0.016525      0.049098
O	      8.42693      6.41705      8.32727        -0.096805     -0.001425     -0.028298
O	      2.17773      6.36903      6.36033         0.012986     -0.051725      0.023825
O	      4.20910      8.40504      6.29656         0.023406      0.029462     -0.011537
O	      4.09085      6.33096      8.44714         0.028420      0.033634     -0.008391
O	      6.34167      8.61654      8.27720        -0.053690     -0.086134     -0.028920
O	      6.14665      6.41333     10.40692         0.075028     -0.007679     -0.031575
O	      8.39947      8.58271     10.61867        -0.008179     -0.014136      0.069428
