# total energy = -219.25961356 eV
 
CRYSTAL
PRIMVEC
0.018546 6.142705 6.268736 
6.471344 0.039522 6.248672 
4.348501 4.115071 -0.006994 
PRIMCOORD
36 1
Li	     10.76556      4.14877      6.24346        -0.009641     -0.008779      0.027812
Li	      2.12606      2.04599      0.09043        -0.027973      0.023528      0.033186
Li	      6.52763      4.14399      2.15621        -0.024417     -0.017798     -0.001970
Li	      4.31071      2.04995      2.09916         0.011070      0.054109      0.047692
Li	      8.44639      4.09342      4.10680        -0.016503      0.035891     -0.047819
Li	      0.11432      2.09764      2.04050        -0.023428     -0.034123     -0.004060
Li	      4.48021      4.09427      4.08835        -0.025669     -0.054222     -0.012373
Li	      6.55860      4.08134      6.13669         0.027806      0.003842     -0.000544
Li	      8.58921      8.26429      8.34296        -0.056621     -0.012860     -0.076801
V	      2.32708      4.05175      2.09814         0.257972      0.153759     -0.116174
V	      4.43148      2.07506      6.16145        -0.356021      0.046835      0.432611
V	      8.75704      6.32088     10.40668        -0.176246     -0.453383     -0.017026
Cr	      6.50472      8.22741      6.26878         0.145832      0.075142     -0.145914
Fe	      4.34303      6.17877      6.31023        -0.000757     -0.232733     -0.079064
Fe	      6.41627      6.16459      8.40462         0.111991      0.139096     -0.164923
Cu	      6.46865      2.14503      4.09901        -0.087535      0.245897      0.184697
Cu	      6.48924      4.19038     10.43100        -0.041898     -0.018213      0.104092
Ni	      6.48577      6.07514      4.10533         0.082009     -0.038294      0.134760
O	      2.13852      2.15763      2.10215        -0.049062     -0.234724     -0.105389
O	      4.10073      4.12933      2.06112         0.014377     -0.012523      0.045806
O	      4.20398      2.01385      4.34409        -0.022920     -0.050739     -0.483351
O	      6.46944      4.07359      4.13595        -0.007461     -0.042703     -0.044239
O	      6.25051      2.09916      6.21188         0.385855      0.065570     -0.119314
O	      8.60870      4.30400      6.39009        -0.062276     -0.254677     -0.068919
O	      2.29088      4.23211      4.17767        -0.079901      0.038575      0.099634
O	      4.30196      6.14951      4.26116         0.156878      0.118557     -0.010552
O	      4.19059      3.98519      6.31116        -0.007447      0.184299      0.022073
O	      6.48698      6.20783      6.25727        -0.146002     -0.067069      0.011551
O	      6.71840      4.22561      8.44761        -0.057683     -0.234090      0.085272
O	      8.62536      6.15761      8.37545         0.012851      0.139748      0.196371
O	      2.31125      6.11196      6.16927        -0.032081      0.061018      0.031096
O	      4.48355      8.16879      6.17954        -0.068256      0.165154     -0.090631
O	      4.44818      6.11634      8.25954        -0.090043     -0.016791      0.130895
O	      6.47431      8.14918      8.24817         0.013716      0.134941     -0.027247
O	      6.64808      6.27868     10.40089         0.192060     -0.304858      0.042744
O	      8.66475      8.08682     10.44791         0.057425      0.402618     -0.013983
