# total energy = -219.05494361 eV
 
CRYSTAL
PRIMVEC
0.017726 6.179604 6.285170 
6.271123 0.009447 6.293353 
4.192795 4.137550 -0.005788 
PRIMCOORD
36 1
Li	      4.17955      2.12594      2.12382         0.012145      0.043750     -0.034143
Li	      4.18861      0.02152      4.21452         0.009610     -0.048643      0.000711
Li	      2.11674      4.13015      2.21992         0.024343     -0.005066     -0.004293
Li	      4.05047      4.16833      4.25588         0.007568     -0.008047      0.038101
Li	      6.19235      4.19784      6.33554        -0.050061      0.003474      0.047734
Li	      0.16381      4.05543      4.17730         0.038791     -0.026906      0.040866
Li	      2.17307      4.12465      6.16796         0.002143     -0.003969     -0.018428
Li	      4.22709      6.06579      6.19541         0.017987     -0.037865     -0.042182
Li	      4.18551      4.11275      8.27391        -0.028978      0.054184     -0.025459
V	      2.20613      8.30861      6.27762         0.139398     -0.015903      0.014697
V	      6.20916      2.20267      4.16230         0.007097      0.051740     -0.046317
V	      6.14234      6.11239      8.37322        -0.206736      0.040086     -0.017400
Cr	      0.04362      6.16458      6.27183        -0.033648     -0.119344      0.049685
Fe	     10.42150      6.27258      8.48631         0.030090     -0.031794     -0.079371
Fe	      4.11385      2.21658      6.30149         0.007040     -0.187406     -0.002501
Ni	      2.13902      6.12867      8.32698         0.101552     -0.029785     -0.000097
Ni	      2.09717      2.12001      4.22073         0.047772     -0.156146     -0.004148
Ni	      2.16099      6.08195      4.19870         0.019733      0.031048     -0.007793
O	      2.01739      2.02869      1.95647         0.062090      0.117539     -0.062287
O	      4.26215      4.24329      1.95300        -0.113074     -0.062751     -0.049718
O	      4.24564      2.03575      4.26905         0.127440     -0.021860     -0.072282
O	      6.33287      4.01524      4.11581         0.013939      0.038838      0.089361
O	      6.26382      2.04289      6.23592         0.019809      0.030163      0.069074
O	      8.49179      4.07777      6.27104        -0.005821      0.108591     -0.012316
O	      2.09895      4.08923      4.19969         0.031350     -0.006937     -0.039580
O	      4.23325      6.18351      4.09934        -0.007558     -0.020905      0.097455
O	      4.20074      4.06646      6.29268        -0.011446      0.079766      0.008823
O	      6.34535      6.15782      6.38093        -0.093472      0.006347      0.112078
O	      6.26287      4.16318      8.39926         0.008808      0.024432      0.007623
O	      8.32953      6.19219      8.36271        -0.022547      0.035092     -0.062359
O	      2.07244      6.25884      6.28585        -0.053852      0.058336     -0.020468
O	      4.07273      8.33559      6.29785         0.004480      0.003126     -0.056746
O	      4.35478      6.17494      8.39330         0.071982     -0.009310      0.009940
O	      6.28392      8.17279      8.51280        -0.019986     -0.079208      0.005436
O	      6.33422      6.32091     10.44028        -0.137588      0.014276      0.061371
O	      8.23911      8.20897     10.69337        -0.020398      0.131057      0.004936
