# total energy = -92.96277740 eV
 
CRYSTAL
PRIMVEC
2.086255 4.135976 2.085925 
2.123061 -4.172676 2.123393 
4.249898 0.000271 -4.249956 
PRIMCOORD
16 1
Li	      2.25162     -0.00068     -2.12866        -0.082264      0.009838     -0.285648
Li	      2.27165     -2.05652     -0.05619         0.077057     -0.169202     -0.066061
Li	      4.30921     -0.01866     -0.04150         0.225891     -0.037692      0.077209
Li	      4.21268     -2.05588     -1.99810         0.029868     -0.207732      0.008688
Mn	      0.11898     -0.00085      0.00531        -2.133669      0.014664     -0.093358
Mn	      2.21719      2.03624     -0.03865         0.011536      1.096583     -0.586008
Ni	      4.28439      2.03667     -2.10588        -0.430097      0.511896      0.134468
Ni	      2.18391     -0.01875      2.08646        -0.116859     -0.076056      0.801479
O	      6.59998     -0.00347     -0.07615         0.247768     -0.142763     -0.270893
O	      4.12601      2.04538     -0.04104        -0.423119     -0.354911      0.205310
O	      4.34684     -0.03348     -2.32971         0.392569     -0.067314      0.283039
O	      4.24446     -0.13892      2.24932         0.110516     -0.479844     -0.243699
O	      4.31061     -2.08323      0.14404         0.023251      0.165944      0.690759
O	      2.12223      2.18000      1.99569         0.487584     -0.426675     -0.436154
O	      2.02121      0.10113      0.02533         0.900913     -0.032727      0.012983
O	      2.27404     -2.21772      2.14806         0.679055      0.195990     -0.232112
