# total energy = -224.40030186 eV
 
CRYSTAL
PRIMVEC
0.044429 6.226651 6.209444 
6.405795 -0.006473 6.258698 
4.254577 4.168426 0.011871 
PRIMCOORD
36 1
Li	      6.43980     10.17571      8.32266         0.007015      0.031621     -0.031326
Li	      4.52976      8.24556      8.34311        -0.047495     -0.046482     -0.012150
Li	      6.38282      8.29179     10.20060        -0.016595     -0.058249      0.103071
Li	      8.51977      4.24874      8.34833         0.021214     -0.003523     -0.032011
Li	      2.22442      2.11600      4.19200         0.015795      0.033010     -0.044823
Li	      8.48507      6.32955      6.30808         0.062761     -0.008839     -0.013798
Li	      6.33395      4.18236      6.33530        -0.060295     -0.046192     -0.015888
Li	      6.52722      8.25396      6.35187         0.015060      0.029563     -0.114789
Li	      8.44518      8.27315      8.19948         0.037831      0.002477     -0.006130
V	      2.09846      2.12697      0.15814        -0.004734     -0.081288     -0.010930
V	      8.31187      4.24105      4.08457        -0.021589     -0.050651      0.087858
V	      4.36527      6.16738      6.30167        -0.067573      0.021982     -0.049578
Cr	      8.56237      6.25263     10.33561        -0.002232      0.057653      0.125403
Fe	      4.22956      4.17566      0.11649         0.109592      0.002846     -0.080839
Fe	      4.28434      4.03428      4.14422         0.001111     -0.008162     -0.174958
Fe	      6.52122      4.15357     10.28157        -0.112116      0.004543      0.175578
Co	      6.41106      2.09141      8.31708        -0.005764     -0.016627      0.047725
Cu	      6.47407      6.32263      8.22210         0.017276     -0.245878      0.026814
O	      6.45714      8.23416      8.28898         0.010354      0.022287      0.004830
O	      2.00179      2.12016      1.94083         0.038603      0.030503      0.118791
O	      4.29794      4.28521      2.07023        -0.005785      0.040379      0.009982
O	      4.28424      1.92294      4.16631        -0.041110     -0.107370     -0.016425
O	      6.54881      4.09895      4.19531        -0.071765      0.034688      0.027850
O	      6.49105      2.00837      6.38390        -0.014317      0.121927     -0.021518
O	      8.62915      4.08456      6.15368        -0.045441      0.085632      0.004689
O	      2.07327      4.25922      4.14944        -0.004000      0.013188      0.000713
O	      4.19742      6.31130      4.09294        -0.054639     -0.022706      0.035878
O	      4.27763      4.24731      6.13523         0.018917      0.014308      0.184529
O	      6.24218      6.26662      6.27138         0.078315     -0.041572     -0.092287
O	      6.43534      4.08698      8.36653        -0.005980      0.073325     -0.156422
O	      8.74610      6.25556      8.38615         0.040037      0.015271     -0.101530
O	      2.16485      6.34129      6.14039         0.020254      0.027628     -0.041742
O	      4.14508      8.32111      6.23468         0.059804     -0.022335     -0.004471
O	      4.22272      6.20858      8.36503        -0.062682     -0.020969      0.010215
O	      6.48356      6.17082     10.45439         0.044864      0.109132      0.102730
O	      8.62961      8.33545     10.55845         0.045307      0.008877     -0.045039
