# total energy = -225.26755809 eV
 
CRYSTAL
PRIMVEC
0.055920 6.329674 6.204150 
6.375613 0.047121 6.212683 
4.279181 4.254130 0.003196 
PRIMCOORD
36 1
Li	      4.29709     10.46796      6.24543        -0.030101     -0.015372      0.077993
Li	      2.37474      8.48176      6.18809         0.080422      0.075341      0.009433
Li	      2.33351      6.35346      8.21146         0.014261      0.017169     -0.063135
Li	      4.27468      8.29791      8.22076        -0.108329     -0.072470      0.045871
Li	      4.31030      6.35741     10.26555         0.003311      0.017957     -0.008065
Li	      6.43435      6.37807      4.17830        -0.068656      0.039174     -0.047540
Li	      4.28558      8.49237      4.22792         0.013384     -0.030322     -0.040139
Li	      4.27887      6.47011      6.34144        -0.052067      0.028184     -0.073196
Li	      6.24089      6.38412      8.25339         0.017827      0.012146      0.019312
V	      6.47850      8.45473     10.31231         0.015721     -0.012640      0.013302
V	      0.17696      2.06756      2.04019         0.318615      0.236969     -0.088107
V	      2.16515      6.38474      4.19897        -0.026636     -0.056709      0.009213
Cr	      4.32223      4.36086      8.26138        -0.005273      0.095953      0.087566
Fe	      4.29012      4.23670      4.12703        -0.042460     -0.044185     -0.080585
Fe	      8.48429      6.31938      6.20261         0.108004     -0.047100      0.110681
Fe	      6.25360      8.49080      6.25484         0.072406     -0.039001      0.011202
Co	      8.49386      4.28628      8.27684         0.143249     -0.045591      0.024924
Ni	      6.41951      4.31529      6.20877         0.024439      0.025397      0.001317
O	      1.96286      2.11199      2.07149        -0.153135     -0.031896     -0.032038
O	      4.22163      4.38264      2.12830        -0.385282     -0.083832     -0.064496
O	      4.37980      2.19342      4.16452         0.032598     -0.016068     -0.034940
O	      6.30691      4.07943      4.18386         0.043376      0.016956     -0.156178
O	      6.32131      2.18277      6.22421        -0.078398     -0.098291     -0.101389
O	      8.47787      4.36767      6.25226         0.064246     -0.095937      0.548991
O	      2.23550      4.27120      4.15821        -0.065800      0.030459     -0.406068
O	      4.21709      6.28328      4.02093         0.054899     -0.075499      0.039031
O	      4.27693      4.19092      6.20625        -0.100485     -0.028399      0.000895
O	      6.52706      6.43347      6.19376        -0.055202      0.077892      0.022842
O	      6.36776      4.17270      8.27359         0.140564      0.055865      0.108446
O	      8.70876      6.49725      8.28581         0.032165      0.145728      0.031782
O	      2.18124      6.23698      6.11517         0.048911      0.023620      0.023118
O	      4.38440      8.47004      6.21678        -0.086151     -0.015056     -0.010975
O	      4.31329      6.28938      8.28753        -0.015370     -0.115812      0.024718
O	      6.56220      8.51481      8.32509         0.073614     -0.021152      0.055094
O	      6.51612      6.58704     10.33365        -0.014339      0.036633     -0.029860
O	      8.47401      8.51398     10.29250        -0.014328      0.009889     -0.029019
