# total energy = -227.82527025 eV
 
CRYSTAL
PRIMVEC
0.028185 6.178991 6.349935 
6.256273 0.020425 6.358151 
4.187077 4.141075 -0.002810 
PRIMCOORD
36 1
Li	      8.37341      8.28192     12.68282        -0.008636     -0.010656      0.038511
Li	      4.20263      2.05587      2.21414        -0.046539      0.054600      0.095097
Li	      6.13757      2.14139      4.26629        -0.121106     -0.047514      0.043301
Li	      6.22540      2.09763      8.44852        -0.030985     -0.003118     -0.000631
Li	      4.27469      4.03043      4.36015        -0.019152     -0.125488     -0.023055
Li	      4.18926      2.14137      6.25557        -0.002269     -0.054858     -0.002525
Li	      6.13003      4.11635      6.31897        -0.052854     -0.041994      0.064845
Li	      4.25033      6.10678      6.37382         0.019333     -0.023753     -0.020718
Li	      4.21663      4.12825      8.35257         0.049301     -0.050978     -0.066158
V	      6.21390      0.14272      6.39944         0.072183      0.160437      0.117605
V	      2.15775      0.04896      2.17251        -0.278304      0.132454     -0.060792
V	      2.10518      4.07585      2.09495         0.058010      0.050060      0.046946
Cr	      6.22459      6.25859      8.45795         0.091135     -0.034468      0.008243
Fe	      4.17533      8.25023      4.26641         0.185932     -0.001026     -0.129070
Fe	      8.44374      6.32277     10.57194        -0.041470     -0.219991     -0.006073
Fe	      2.26573      4.09658      6.33947        -0.096041      0.063310     -0.071956
Co	      8.31731      4.12836      4.26292        -0.067841      0.236328      0.307569
Co	      6.32348      6.13088      4.33509        -0.032899     -0.135174     -0.143427
O	      2.06966      1.91082      2.10440         0.047170     -0.150328     -0.058812
O	      4.19367      4.12119      1.99377         0.021649      0.015895      0.067315
O	      4.09742      1.92919      4.25816         0.023717      0.639880      0.009870
O	      6.26233      4.08462      4.08812        -0.293799     -0.121649     -0.156271
O	      6.27516      1.91655      6.33021         0.001353     -0.004961      0.003246
O	      8.45858      4.09938      6.48085        -0.059580     -0.021100     -0.085669
O	      2.09845      4.17219      4.18106        -0.015122      0.043157      0.087010
O	      4.16052      6.28718      4.21679         0.112996     -0.069503      0.016494
O	      4.13719      4.12437      6.32080         0.121409      0.026578      0.055859
O	      6.23534      6.27734      6.47643         0.023895     -0.131814     -0.104054
O	      6.37228      4.24411      8.53837        -0.091078      0.002757     -0.003118
O	      8.24393      6.16669      8.58805         0.053433      0.117502     -0.060155
O	      2.05438      6.16873      6.36463         0.077291      0.097898     -0.060645
O	      4.31848      8.46238      6.21104         0.020308     -0.031821      0.101327
O	      4.14835      6.19326      8.47496        -0.022029      0.013778     -0.079324
O	      6.27443      8.37000      8.37960        -0.011209      0.004529      0.094323
O	      6.32788      6.21964     10.57923         0.302430     -0.059404     -0.048640
O	      8.45194      8.27711     10.59750         0.009370     -0.319565      0.023532
