# total energy = -222.96389648 eV
 
CRYSTAL
PRIMVEC
0.026273 6.362927 6.273955 
6.230768 0.028813 6.271624 
4.161492 4.248054 0.011598 
PRIMCOORD
36 1
Li	      6.28371     10.51869      8.36715        -0.020898      0.012938     -0.017995
Li	      4.30805      8.45164      8.37135        -0.024410     -0.078086      0.022749
Li	      6.24490      8.51768     10.29317        -0.041332      0.017357     -0.000504
Li	      2.06444      4.29045      2.19891        -0.032034      0.057282      0.017284
Li	      4.12357      4.26537      4.15017        -0.001894      0.053328     -0.023168
Li	      0.06449      4.23131      4.15608        -0.018258     -0.035196     -0.044903
Li	      2.09261      6.29385      4.19082         0.015395     -0.080794     -0.020247
Li	      4.12043      6.40176      6.32799        -0.013502     -0.091988      0.037449
Li	      6.24581      6.49024      8.41739         0.011921      0.029121      0.017381
V	      2.21322      8.42754      6.27209         0.018050     -0.052591      0.034482
V	      4.25491      6.35402     10.36285         0.086426      0.044933      0.111251
V	      4.16327      6.30020      2.16102        -0.033911     -0.021825     -0.011116
Cr	      6.20328      8.54252      6.31342         0.027409     -0.101412     -0.071960
Fe	      2.09490      2.22047      4.11004        -0.010811     -0.104209     -0.031961
Fe	      4.18344      2.14252      6.27950         0.079230     -0.058551     -0.008622
Fe	      6.18608      4.32958      6.30490        -0.032050      0.076683      0.048151
Cu	      0.06530      6.33632      6.27313        -0.094669     -0.067979      0.072100
Ni	      8.27542      8.49652      8.42869         0.062273     -0.034908      0.047841
O	      2.00010      2.14877      2.06731         0.107941      0.002186     -0.090224
O	      4.14732      4.47806      1.98240         0.034921     -0.050658      0.203357
O	      4.12999      2.06553      4.23392         0.081902     -0.022242     -0.054776
O	      6.38711      4.37146      4.30560         0.018615     -0.018951     -0.112316
O	      6.26182      2.29991      6.31698         0.094370      0.047167     -0.045112
O	      8.28974      4.29588      6.25217        -0.104039     -0.062149     -0.002600
O	      2.08723      4.15850      4.26835        -0.007592      0.113133      0.036394
O	      4.25804      6.33890      4.05129        -0.103518      0.025192      0.137871
O	      4.14778      4.18461      6.27127        -0.099949      0.113624     -0.061114
O	      6.30541      6.39646      6.25715        -0.074662      0.105991     -0.000542
O	      6.19564      4.09447      8.27399         0.116536      0.054713      0.132770
O	      8.38739      6.39961      8.30358        -0.031267     -0.072608      0.049677
O	      2.05565      6.32716      6.22054         0.315688      0.123682      0.047358
O	      4.16108      8.37966      6.32586        -0.178064     -0.024419     -0.035280
O	      4.18429      6.30352      8.51133         0.003478      0.138320     -0.150621
O	      6.26593      8.51217      8.28520        -0.153003     -0.013928     -0.021498
O	      6.07933      6.40496     10.57306        -0.013188     -0.015180     -0.324235
O	      8.30770      8.62434     10.55171         0.014897     -0.007976      0.112678
