# total energy = -223.47750102 eV
 
CRYSTAL
PRIMVEC
0.001379 6.224538 6.334853 
6.282327 0.018005 6.318226 
4.176651 4.127046 0.023612 
PRIMCOORD
36 1
Li	      2.06326      2.04858      0.06708         0.018818     -0.006133      0.045049
Li	      6.27326     10.24484      8.46428         0.013582     -0.002410      0.019360
Li	      4.30459      8.30673      8.45002         0.040208     -0.016376      0.041451
Li	      4.21033      4.10301      4.21898         0.010081      0.006046      0.011717
Li	      4.20525      2.11613      6.29245         0.011792      0.064580     -0.016171
Li	      6.25786      4.12094      6.31405        -0.049089      0.016642      0.010797
Li	      2.08710      6.16911      4.27871         0.004902     -0.034194      0.018040
Li	      6.27409      8.27458      6.48180         0.021573     -0.013355      0.046820
Li	      6.25178      6.31194      8.35233         0.007674     -0.072230     -0.077767
V	      4.17851      8.26399      4.26211        -0.056185      0.052448     -0.099280
V	      8.36714      4.20158      8.35786        -0.100779      0.057362      0.000705
V	      4.14362      6.21941      6.37311        -0.000784     -0.102514      0.108892
Cr	      8.31634      8.26106      8.42907         0.042196     -0.074467     -0.020195
Fe	      0.14076      6.30307      6.37071        -0.072772     -0.162890     -0.042199
Fe	      8.33240      4.17495      4.27383         0.040337     -0.078680     -0.042050
Fe	      6.32522      6.19153      4.29691         0.019397      0.026943     -0.085794
Ni	      6.25930      2.10493      4.21866        -0.001450     -0.035048      0.053346
Ni	      6.28193      2.08412      8.38367        -0.021589      0.060120     -0.027693
O	      2.03755      2.29683      2.18752         0.115606     -0.052129     -0.000443
O	      4.07409      4.15411      2.04930        -0.010067     -0.134365      0.062166
O	      4.15032      2.01916      4.21984        -0.030855      0.083056     -0.005776
O	      6.36021      4.18742      4.22200        -0.075021      0.077591     -0.030916
O	      6.30104      2.03531      6.30259         0.015170      0.032963     -0.019356
O	      8.44509      4.13487      6.36616         0.048098     -0.019605      0.025714
O	      2.00082      4.11593      4.08549         0.029085      0.105686     -0.037590
O	      4.21139      6.23946      4.29107        -0.081095      0.044190      0.103931
O	      4.15660      4.32015      6.40278        -0.023774      0.077869     -0.034157
O	      6.12915      6.24227      6.24351        -0.016378      0.013401      0.098141
O	      6.28305      4.14048      8.46763         0.009165      0.138528     -0.030727
O	      8.37174      6.13124      8.42888        -0.079558      0.007799     -0.034653
O	      2.10884      6.22912      6.34597         0.070748     -0.051010      0.036951
O	      4.16179      8.16139      6.34206        -0.002422      0.052722      0.067621
O	      4.19322      6.14107      8.39937         0.004306      0.073879     -0.000237
O	      6.37579      8.25562      8.54262        -0.014651     -0.020093     -0.154820
O	      6.21544      6.17823     10.65394         0.021509     -0.093773      0.051878
O	      8.42022      8.34200     10.46125         0.092221     -0.022552     -0.042753
