# total energy = -225.74468675 eV
 
CRYSTAL
PRIMVEC
0.017840 6.289211 6.238324 
6.340583 -0.004433 6.260701 
4.226774 4.207348 -0.002697 
PRIMCOORD
36 1
Li	      6.42268     10.43551      8.33741         0.018303     -0.023295     -0.018189
Li	      8.41754     10.45374     10.34651        -0.051353     -0.047558     -0.004234
Li	      6.39403      8.44950     10.33266         0.061316      0.046441     -0.052695
Li	      8.40131      4.22320      8.32636        -0.059371      0.058256     -0.028324
Li	      6.30924      4.23571      6.31044        -0.035517      0.037149      0.069662
Li	      6.41733      8.38511      6.31320         0.044869     -0.029750      0.027001
Li	      4.26270      6.21907      6.34751         0.002308     -0.045574      0.019952
Li	      4.22779      4.25077      8.27911         0.058183     -0.018089     -0.053399
Li	      6.31537      6.28100      8.27033        -0.008304     -0.013788     -0.056910
V	      4.22190      4.20034      0.05986         0.059669     -0.024281     -0.084288
V	      6.35070      6.28768      4.17276        -0.078198     -0.087199      0.042659
V	      8.43724      6.30332      6.29090         0.052972     -0.034091      0.141999
Cr	      4.36832      8.26096      8.31878         0.206142     -0.082198     -0.085935
Fe	      8.41712      2.12902      6.29806        -0.029469      0.042674     -0.080930
Fe	      4.31033      4.18062      4.20032        -0.086642      0.110473     -0.106993
Fe	      6.33251      4.22552     10.29968        -0.046322      0.005799      0.156401
Fe	      8.43079      6.29718     10.34471        -0.076680      0.056269      0.093890
Ni	      6.33380      2.13222      8.34260         0.001033     -0.025184     -0.033710
O	      2.19641      2.12547      2.07800         0.061396      0.022860      0.123245
O	      4.22332      4.11027      2.07032        -0.039642     -0.076479      0.185186
O	      4.20923      2.16023      4.11024         0.010124     -0.066383      0.000131
O	      6.24445      4.31187      4.13342         0.145757      0.027761     -0.012012
O	      6.35501      2.07898      6.30781        -0.035159      0.003478     -0.112054
O	      8.56098      4.20292      6.24031        -0.089666      0.060799     -0.016968
O	      2.10751      4.18740      4.17071         0.062444     -0.042066      0.027981
O	      4.20057      6.27824      4.15069         0.057615     -0.000770      0.131878
O	      4.23492      4.08753      6.16463         0.027565      0.035127      0.055730
O	      6.48013      6.27623      6.14569        -0.044721      0.000693     -0.031466
O	      6.33855      4.16642      8.42034         0.011489      0.104010     -0.102038
O	      8.49251      6.31355      8.39053        -0.076395     -0.038237     -0.130192
O	      2.02583      6.39680      6.16164         0.111278     -0.071681      0.025488
O	      4.15891      8.40603      6.30098         0.057013     -0.037217     -0.008485
O	      4.22714      6.45257      8.33097        -0.021602      0.091789     -0.000872
O	      6.17286      8.40834      8.31659        -0.185689     -0.031567     -0.002569
O	      6.43491      6.19705     10.50491        -0.025844      0.074914     -0.050843
O	      8.53882      8.33929     10.50062        -0.058900      0.016915     -0.028095
