# total energy = -229.01336328 eV
 
CRYSTAL
PRIMVEC
0.017610 6.238652 6.335901 
6.349522 0.003362 6.350312 
4.242120 4.178289 -0.006929 
PRIMCOORD
36 1
Li	      0.26499      6.15742      6.31799        -0.008929     -0.007176     -0.013675
Li	      2.21021      8.11000      6.30813         0.007679      0.104308      0.010957
Li	      2.13795      6.23425      8.20804        -0.013781      0.035042      0.013614
Li	      4.27906      6.23516     10.53343        -0.010880      0.015074      0.056126
Li	      6.33390      6.24554      4.20373         0.036310      0.007828      0.011213
Li	      2.11961      6.25451      4.47828        -0.049579     -0.002779     -0.062018
Li	      2.05173      4.39628      6.32277         0.030380     -0.115364     -0.072865
Li	      4.02415      6.30008      6.32362         0.009902      0.014626      0.030301
Li	      6.30219      6.29228      8.50960        -0.018176     -0.011328     -0.001187
V	      0.07356      2.03520      2.12633         0.186964     -0.021343     -0.027894
V	      2.13426      4.17623      2.14456        -0.092149     -0.096689     -0.106810
V	      6.37518      4.27306      6.29032         0.078334      0.034615     -0.046104
Cr	      4.25275      8.37363      4.30472        -0.016485      0.026566      0.029245
Fe	      4.25561      8.25031      8.27449         0.015289      0.012177      0.094385
Fe	      6.42492      8.15336     10.57511        -0.009676      0.132338      0.093560
Fe	      4.16836      4.20375      4.26762         0.044023      0.059146      0.057172
Fe	      4.22681      2.09031      6.28532        -0.108287     -0.126631      0.063523
Fe	      4.14413      4.33733      8.47683         0.091836     -0.114290     -0.079367
O	      2.13088      2.17708      2.09171        -0.048612     -0.062114     -0.011359
O	      4.19567      4.09197      2.13439         0.007378      0.030071     -0.117226
O	      4.32347      2.06044      4.26634         0.087648      0.134102     -0.010601
O	      6.30223      4.05053      4.44139         0.168295     -0.136935      0.013230
O	      6.31825      2.20408      6.36915        -0.030702     -0.034354      0.015890
O	      8.33976      4.25974      6.43526        -0.031321     -0.021099      0.035786
O	      2.04509      4.18199      4.11896        -0.181832      0.094011      0.019650
O	      4.28265      6.32317      4.07992        -0.120871      0.050707     -0.060377
O	      4.33375      4.13490      6.44195         0.033651     -0.041269      0.013211
O	      6.45732      6.09845      6.34335        -0.034273      0.073540      0.103961
O	      6.32379      4.15180      8.47070        -0.011861      0.029124      0.044191
O	      8.62544      6.24116      8.30935         0.028570      0.067424      0.090055
O	      2.14288      6.24888      6.34284         0.035162     -0.034127     -0.058462
O	      4.27667      8.31584      6.33682         0.012347     -0.005610     -0.175786
O	      4.24620      6.28248      8.45145        -0.019003      0.033228      0.034873
O	      6.39045      8.30202      8.56438        -0.112249      0.042250     -0.018191
O	      6.35761      6.23441     10.60605         0.000202     -0.137356     -0.021531
O	      8.49400      8.34795     10.44628         0.044696     -0.027715      0.052510
