# total energy = -205.20352118 eV
 
CRYSTAL
PRIMVEC
0.042103 6.159963 6.193703 
6.267201 0.018651 6.216873 
4.192295 4.136093 -0.001544 
PRIMCOORD
36 1
Li	      4.24403     10.21423      6.22174         0.007338      0.018923      0.029257
Li	      2.03379      0.06735      2.01004        -0.065764      0.022766     -0.009660
Li	      4.16909      8.22662      8.15512        -0.041052      0.022916     -0.047485
Li	      8.38880      4.17369      4.19396         0.000972      0.010735      0.045736
Li	      2.14884      4.05170      2.05392         0.035572     -0.003292      0.026121
Li	      2.07966      2.09221      4.09264         0.028519     -0.014333     -0.029119
Li	      6.34918      4.14448      6.17073        -0.011487     -0.007869     -0.009238
Li	      4.30217      8.21770      4.21211         0.062323     -0.001790     -0.019472
Li	      4.15100      6.30827      6.15831        -0.021634     -0.000733     -0.059842
Ti	      4.23265      4.30303      8.28036         0.022144     -0.040563      0.002307
Mn	      4.27307      6.12466      2.09419         0.154758     -0.069842     -0.044615
Mn	      8.39573      6.10041      6.23123         0.023898     -0.084742     -0.067355
Co	      6.22250      2.09586      4.13427        -0.016452     -0.013619      0.133918
Cu	      6.28182      6.19392      8.26812        -0.078533     -0.103185     -0.039688
Ni	      2.20614      8.24669      6.19348        -0.021488      0.070123     -0.042240
Ni	      4.20024      4.10549      4.14568        -0.094286     -0.025870      0.080184
Ni	      2.12115      6.15892      4.13995         0.070084     -0.007601      0.013290
Ni	      6.25621      8.29415      6.19323        -0.133747      0.034138     -0.024625
O	      1.95535      2.07947      2.01479        -0.045222     -0.026916      0.111781
O	      4.19971      4.24780      2.14612        -0.004007      0.025508     -0.195106
O	      4.26073      2.09187      4.29861         0.062532     -0.152988      0.106944
O	      6.08631      3.94495      4.15633         0.309019     -0.012006     -0.055763
O	      6.20383      2.04055      6.29985        -0.115813     -0.000717      0.159552
O	      8.35495      4.22724      6.19397         0.010400      0.118806      0.034451
O	      2.28921      4.13977      4.21964        -0.142050     -0.098202     -0.208493
O	      4.22584      6.11403      4.00654         0.032160      0.171155     -0.077065
O	      4.16762      3.97900      6.29439         0.137429      0.051881      0.239373
O	      6.47033      6.20728      6.29953         0.064899     -0.102226      0.026025
O	      6.16583      4.02510      8.35745        -0.244131      0.147608      0.028007
O	      8.54852      6.21364      8.20832        -0.135604      0.023702     -0.059340
O	      2.14711      6.19821      6.12631        -0.020084     -0.002244      0.110974
O	      4.23021      8.24331      6.15889        -0.025012      0.009064      0.000281
O	      4.16427      6.10044      8.25695         0.168694     -0.056855     -0.000366
O	      6.40527      8.22057      8.23783         0.204684     -0.057096      0.054238
O	      6.34868      6.35719     10.20502        -0.186476      0.032292      0.011292
O	      8.23580      8.26315     10.28002         0.007420      0.123071     -0.224261
