# total energy = -204.89031559 eV
 
CRYSTAL
PRIMVEC
0.008926 6.118788 6.218501 
6.175198 -0.010347 6.237776 
4.111862 4.087036 -0.002032 
PRIMCOORD
36 1
Li	      6.17115      0.00559      6.24456         0.043516     -0.031316     -0.009491
Li	      2.05902      8.10554      6.17434        -0.005472     -0.015400     -0.003630
Li	      6.12643      4.10176      2.09142        -0.032849     -0.010855      0.029520
Li	      8.17958      4.08997      4.27369        -0.017790     -0.003607      0.033375
Li	      4.13206      4.07870      4.25006         0.016011     -0.006059     -0.014422
Li	      4.16351      2.08905      6.15617        -0.043052      0.071738     -0.025606
Li	      6.08138      4.05521      6.18360        -0.013847      0.002993     -0.014371
Li	      2.12244      4.10507      6.14100        -0.008627     -0.019928     -0.026702
Li	      4.09732      4.13283      8.22818        -0.022432      0.005928      0.031637
Ti	      8.29938      4.03983      8.14888         0.168684     -0.064826     -0.320730
Mn	      6.17037      2.11191      4.25341         0.119868      0.031680     -0.069788
Mn	      6.14179      6.13131      8.28222        -0.002132      0.075488      0.086397
Co	      6.16012      2.06500      8.20918         0.168258     -0.088883     -0.177184
Cu	      2.10270      6.09735      4.18112        -0.095091     -0.069903     -0.056710
Cu	      4.08479      6.08750      6.25653         0.031347      0.059772      0.053951
Ni	      4.07776      8.17111      4.20988        -0.104549      0.087581      0.045482
Ni	      4.14474      8.14395      8.29459        -0.067198      0.138143      0.011679
Ni	      6.22764      6.06532      4.22643        -0.158577      0.107140     -0.147514
O	      4.09520      4.24993      6.23536         0.000190     -0.199911      0.029501
O	      2.21856      6.08075      6.13287         0.031773     -0.000191      0.114501
O	      1.97452      2.08219      2.14835        -0.011402      0.112496     -0.048827
O	      4.05883      4.18804      2.01989        -0.175875      0.071529     -0.080230
O	      4.19071      2.06771      4.13697         0.084031      0.003223      0.156174
O	      6.20946      3.98291      4.12919        -0.036524     -0.039068      0.041427
O	      6.14953      2.01370      6.18386        -0.017009      0.025846      0.118511
O	      8.22470      4.05784      6.35893        -0.011367     -0.010395      0.199298
O	      1.99895      4.07238      4.04842         0.175864     -0.154756      0.066722
O	      4.07968      6.16821      3.85326         0.224423     -0.171006      0.033309
O	      6.05262      6.13050      6.34773        -0.032912      0.006105      0.064870
O	      6.23733      4.11396      8.35757         0.032579      0.062688     -0.123729
O	      8.23283      6.06540      8.31834        -0.218589     -0.049227     -0.092207
O	      4.10517      7.99989      6.24984         0.012320      0.052150      0.012166
O	      4.31821      6.12913      8.46844         0.055617     -0.126847      0.039727
O	      6.17197      8.04260      8.47682         0.143981     -0.074969      0.042607
O	      6.26532      6.16027     10.28686        -0.098112      0.072959     -0.012769
O	      8.13711      8.07383     10.40093        -0.135056      0.149690      0.013056
