# total energy = -92.73922393 eV
 
CRYSTAL
PRIMVEC
2.096532 4.156351 2.096200 
2.133519 -4.193231 2.133853 
4.270833 0.000272 -4.270892 
PRIMCOORD
16 1
Li	      2.29469     -0.00087     -2.12885        -0.104851      0.013932     -0.376391
Li	      2.30441     -2.05635     -0.04642         0.102260     -0.224598     -0.082272
Li	      4.35176     -0.01885     -0.04190         0.298696     -0.046234      0.097198
Li	      4.26461     -2.05571     -2.00751         0.045573     -0.266294      0.001793
Mn	      0.16203     -0.00104      0.00516        -2.864632      0.008617     -0.121169
Mn	      2.24960      2.03570     -0.02852         0.018192      1.435147     -0.732973
Ni	      4.33722      2.03612     -2.11618        -0.546627      0.655972      0.175235
Ni	      2.22652     -0.01892      2.08603        -0.147286     -0.095704      1.054545
O	      6.66516     -0.00351     -0.07690         0.272367     -0.199014     -0.377871
O	      4.16676      2.06558     -0.04144        -0.524455     -0.466906      0.225515
O	      4.38977     -0.03381     -2.35272         0.537198     -0.063917      0.393263
O	      4.28638     -0.14029      2.27154         0.108914     -0.592390     -0.333822
O	      4.35319     -2.10380      0.14546         0.052148      0.211517      0.849902
O	      2.14320      2.20153      2.01540         0.620602     -0.581922     -0.547801
O	      2.04118      0.10213      0.02559         1.274914     -0.065601      0.054229
O	      2.29650     -2.23962      2.16927         0.856987      0.277394     -0.279379
