# total energy = -205.87557742 eV
 
CRYSTAL
PRIMVEC
-0.035923 6.138789 6.190988 
6.159627 -0.025460 6.180548 
4.102233 4.081384 -0.012762 
PRIMCOORD
36 1
Li	      0.05965      0.04419      0.02325         0.065175      0.010665     -0.006991
Li	      8.14918      1.98963      6.19973        -0.005287     -0.034078     -0.016904
Li	      1.97598      0.09342      2.03014        -0.065423      0.110473      0.022214
Li	      4.09931      2.03992      2.05579        -0.002398      0.034956     -0.042169
Li	      0.01283      2.02548      2.05811        -0.028685      0.046531      0.022924
Li	      2.02570      2.05765      4.07441        -0.039340      0.028682      0.006440
Li	      4.13706      2.00975      6.20655         0.021008      0.013616     -0.029437
Li	      2.04159      6.12579      4.11105         0.007442     -0.014009      0.039254
Li	      8.17163      8.09308      8.26767         0.018063     -0.039669      0.005298
Ti	      2.11695      4.01998      1.92600         0.194043     -0.109265     -0.204586
Mn	      6.14970      8.14824     10.31949         0.036057     -0.071091      0.005748
Mn	      4.06492      6.13196      6.20332        -0.052442     -0.011378      0.021825
Co	      6.14678      8.15679      6.18515         0.024510      0.001650      0.054144
Ni	      4.08820      0.01532      4.11334        -0.047093      0.058359     -0.022550
Ni	      4.06835      4.08818      4.08793         0.008037     -0.000167      0.003969
Ni	      6.13192      4.03271      6.19691        -0.044787      0.052103      0.015928
Ni	     10.21089      8.13569     10.29539        -0.016026     -0.000675      0.029258
Ni	      6.15096      6.11740      8.23171         0.091821     -0.045782      0.018686
O	      2.00427      2.17059      2.08038         0.004070      0.154768     -0.031251
O	      3.99286      4.14551      2.08088        -0.177136     -0.047856     -0.147054
O	      4.25142      2.03789      4.10193         0.039563      0.026677     -0.032592
O	      6.15850      3.95165      4.11633        -0.059448      0.004933     -0.155405
O	      6.15454      2.03961      6.00791        -0.013396     -0.151927     -0.079180
O	      8.17106      4.06469      6.22981         0.124312      0.016568      0.221949
O	      2.03232      4.07971      4.25047        -0.007040      0.023440      0.016670
O	      4.06472      6.11557      4.27345        -0.017874     -0.011545      0.057936
O	      4.02069      4.18426      6.14319        -0.109517      0.010115      0.076264
O	      6.02761      6.16566      6.17564        -0.036272      0.099008     -0.119778
O	      6.18487      4.16998      8.27880        -0.000016     -0.172598     -0.027818
O	      8.04587      6.01745      8.25220         0.198390     -0.045863      0.006782
O	      2.16013      5.99926      6.26051         0.013594     -0.024592     -0.002522
O	      4.20620      8.06556      6.12511         0.068952     -0.031373      0.182720
O	      4.23378      6.13050      8.14685        -0.197800     -0.021643     -0.085847
O	      6.16025      8.03030      8.20444        -0.015176      0.193285      0.058790
O	      6.05395      6.19622     10.30280         0.151718      0.099326      0.125480
O	      8.10109      8.24101     10.29791        -0.131597     -0.151642      0.011804
