# total energy = -208.46572833 eV
 
CRYSTAL
PRIMVEC
0.014738 6.171079 6.260213 
6.247740 0.028592 6.246471 
4.152720 4.092564 0.031928 
PRIMCOORD
36 1
Li	      6.31006     10.17625      8.38180        -0.006293     -0.051238     -0.037169
Li	      8.33376     10.16388     10.35058         0.074339     -0.005639     -0.126542
Li	      6.20988      2.16838      8.29473        -0.069774      0.143151     -0.002448
Li	      8.33334      6.22944      6.41998        -0.019947      0.078396      0.033393
Li	      6.21900      4.13567      6.35482        -0.029827     -0.001561      0.163963
Li	      6.22478      4.15353     10.26733        -0.055494      0.019881     -0.119379
Li	      6.33302      8.23188      6.43110         0.022228     -0.044788      0.112388
Li	      8.32032      8.21348      8.36179         0.070068      0.018008      0.020510
Li	      6.30602      6.14409      8.30905        -0.015413     -0.089295     -0.026438
Ti	      6.28987      6.07509      4.25874        -0.101935     -0.289119      0.609941
Mn	      6.22964      0.05099      6.24300         0.015822      0.065872      0.036141
Mn	      4.16044      6.16384      6.31917         0.063626     -0.094557     -0.131043
Co	      6.22485      2.05978      4.17320         0.160981     -0.069663      0.000215
Co	      8.28812      4.15874      8.34508         0.808734      0.231309     -0.541058
Cu	      4.22693      8.18850      8.35739        -0.020985      0.095621     -0.037632
Ni	      8.27373      2.09203      6.23777         0.009136     -0.000004      0.016281
Ni	      4.16690      4.12340      4.23477         0.056642     -0.060319     -0.117302
Ni	      8.30635      6.18977     10.39480        -0.018524      0.107739      0.095780
O	      2.11215      2.17415      2.14518        -0.129313      0.135101      0.159361
O	      4.03953      4.06950      2.01478         0.259028      0.012288      0.007598
O	      4.16395      2.07413      4.09940        -0.037077     -0.131308      0.069914
O	      6.22927      4.13436      4.16632         0.101257      0.169140     -0.021287
O	      6.23407      1.96830      6.13230        -0.151093     -0.077486     -0.024897
O	      8.41559      4.11473      6.41102        -0.028655      0.140123      0.462163
O	      2.12299      4.04769      4.00083        -0.130444     -0.145462     -0.144799
O	      4.24185      6.17199      4.32545         0.136763      0.087528     -0.058325
O	      4.16179      4.25494      6.27674        -0.064205     -0.016258      0.091925
O	      6.30224      6.24506      6.10112         0.042957      0.011809     -0.583494
O	      6.46023      4.12890      8.31703        -0.645210      0.073474      0.074369
O	      8.36606      6.02032      8.39849        -0.154902     -0.367145     -0.136561
O	      1.96047      6.17660      6.24604        -0.032741     -0.092964      0.037304
O	      4.13406      8.26102      6.34058         0.054930     -0.002163     -0.113063
O	      4.18288      6.22387      8.20525        -0.053791     -0.020373      0.129762
O	      6.18252      8.19808      8.54145         0.045750      0.031157      0.058113
O	      6.22034      6.29395     10.58119        -0.066428      0.037034      0.086856
O	      8.15887      8.20856     10.44408        -0.090209      0.101715     -0.044540
