# total energy = -208.39215796 eV
 
CRYSTAL
PRIMVEC
-0.001048 6.261771 6.183829 
6.194899 0.002340 6.180551 
4.131034 4.173449 0.000335 
PRIMCOORD
36 1
Li	      6.14123      0.09895      6.16695         0.078608     -0.049989     -0.036504
Li	      6.13367      4.24725      2.15609        -0.034184     -0.009343     -0.174670
Li	      8.22817      4.16508      4.16364         0.084897     -0.032866     -0.020651
Li	     10.30606      6.27198      8.24372         0.003313      0.034814     -0.005563
Li	      4.24088      2.03655      6.12677         0.004969      0.065534      0.040009
Li	      6.24982      4.06803      6.12702        -0.056275      0.025192      0.069919
Li	     10.25986      8.35557     10.25003         0.016516      0.020220      0.053698
Li	      8.20528      6.38475     10.25524        -0.038268     -0.045805      0.041161
Li	      8.34902      8.32090      8.31634        -0.000495      0.019214     -0.075672
Ti	      8.25460      4.25753      8.10091        -0.137567      0.201258     -0.214032
Mn	      2.07825      4.19212      6.18982        -0.183122     -0.199717      0.222022
Mn	      4.14620      6.23782      6.19300        -0.135920     -0.231838      0.265835
Co	      6.20891      6.21726      4.14409         0.306772     -0.228099     -0.207334
Co	      6.21465      6.23424      8.25644        -0.043398      0.005426     -0.262018
Cu	      8.19326      2.07046      6.14707         0.089982      0.110578      0.091318
Cu	      6.22822      8.34142     10.31157        -0.125738     -0.080409     -0.050754
Ni	      4.10500      2.08593      2.09696         0.038387     -0.072044     -0.161639
Ni	      4.16632      4.16927      4.10708        -0.136338      0.082917      0.066916
O	      8.17121      8.35336     10.39206         0.196854      0.029538     -0.146283
O	      2.03942      2.17449      2.16603        -0.153639      0.151191     -0.962452
O	      4.01204      4.17383      2.07670        -0.203530      0.083886     -0.115022
O	      4.05969      2.12146      4.11497         0.144531     -0.150680      0.207186
O	      6.17277      4.27398      4.10823         0.304170     -0.129296      0.043793
O	      6.25324      2.05609      6.08070        -0.151537      0.079545      0.210791
O	      8.28676      4.18576      6.27182        -0.008411      0.096108      0.327270
O	      2.07844      4.02739      4.24779        -0.047431      0.090984     -0.272659
O	      4.27182      6.23441      4.25885        -0.374095      0.136475      0.105806
O	      4.00948      4.30173      6.20254         0.398449      0.032371      0.013433
O	      6.09547      6.32695      6.18065        -0.000001      0.021792      0.921841
O	      6.27594      4.29140      8.26852         0.230649      0.000514     -0.008294
O	      8.17450      6.18113      8.26012         0.048745     -0.303480     -0.056533
O	      2.21623      6.12845      6.20007        -0.004074      0.193483      0.019887
O	      4.18626      8.20368      6.19504        -0.170006     -0.014629     -0.079847
O	      4.27753      6.26442      8.11115        -0.052129     -0.038701     -0.071539
O	      6.16933      8.20687      8.14257         0.127908      0.039542      0.083444
O	      6.17172      6.35920     10.10878        -0.018592      0.066314      0.137140
