# total energy = -208.07797322 eV
 
CRYSTAL
PRIMVEC
0.026958 6.330021 6.197157 
6.218515 0.043774 6.179894 
4.159085 4.221720 0.016308 
PRIMCOORD
36 1
Li	      4.06758      4.18801      0.07491        -0.034868      0.040726     -0.056826
Li	      4.10813      2.20916      2.09414         0.057866      0.020813     -0.006690
Li	      8.29157      4.31226      4.19240         0.027558      0.001126     -0.025055
Li	      4.15961      6.29884      2.18295        -0.046317      0.029821     -0.043282
Li	      2.24685      4.18516      2.07882         0.037495      0.073082     -0.059263
Li	      4.13880      4.19285      4.18775         0.092806     -0.040281      0.001532
Li	      4.15672      2.16731      6.16908        -0.029918      0.001386      0.070010
Li	      2.15771      4.20640      6.11401         0.077183     -0.030087      0.100769
Li	      4.16729      6.34358      6.17045         0.054674     -0.019883      0.051045
Ti	      1.96847      0.14762      2.02367        -0.411493     -0.233774     -0.001370
Mn	      6.13714      2.09891      4.10628        -0.078881     -0.235040     -0.006492
Mn	      4.15424      4.24336      8.17112        -0.001166     -0.165412      0.035019
Co	      2.17971      6.32612      4.12575        -0.578425     -0.269768      0.003441
Co	      6.18989      6.35771      8.16904         0.225293      0.151565      0.201146
Cu	      8.31697      2.19408      6.17636        -0.118298     -0.150672      0.222554
Cu	      6.23735      6.43507      4.27765         0.343498     -0.196044      0.091587
Cu	      4.23929      8.42710      4.19508         0.085742      0.162475     -0.127079
Ni	      6.25944      4.22290      6.17496        -0.117471      0.071528      0.046937
O	      6.28545      6.28868      6.29622        -0.128356      0.129838     -0.857421
O	      3.99780      8.51384      6.10033         0.127995     -0.049626      0.043564
O	      2.11906      1.99499      2.31274         0.039736      0.121294     -0.013119
O	      4.30422      4.23811      2.05998         0.422515      0.037424      0.022345
O	      4.25497      2.08943      4.16730        -0.370133      0.070474     -0.004633
O	      6.23462      4.01088      4.05010        -0.005845      0.068967     -0.112805
O	      6.36600      2.13497      6.00824        -0.030998     -0.078039     -0.004993
O	      8.26251      4.04585      6.21980         0.067090      0.087567      0.082902
O	      2.16567      4.49011      4.14845        -0.164031     -0.052048      0.042541
O	      4.23230      6.45145      4.17959         0.252492      0.172936      0.068162
O	      4.21321      4.20504      6.32706        -0.060509      0.037447     -0.080148
O	      6.06601      4.31447      8.32286        -0.003929     -0.347939      0.050068
O	      8.29102      6.49089      8.32367        -0.036497      0.180440     -0.386636
O	      2.10256      6.52055      6.20238         0.050203      0.061495      0.342542
O	      4.11248      6.16090      8.23755        -0.200345     -0.007368     -0.084679
O	      6.31443      8.50146      8.27284        -0.007757      0.217401     -0.023809
O	      6.21090      6.44126     10.08941         0.120721      0.029199      0.423788
O	      8.13369      8.30317     10.13441         0.342371      0.108977     -0.005650
