# total energy = -207.26694187 eV
 
CRYSTAL
PRIMVEC
-0.048527 6.138173 6.240989 
6.246201 -0.024261 6.216519 
4.145278 4.057125 0.002477 
PRIMCOORD
36 1
Li	      6.21308      0.07181      6.24960        -0.089110      0.068572      0.051953
Li	      8.19969      2.03631      6.31134        -0.090518      0.070650      0.053241
Li	      4.11014      1.98208      2.17392        -0.011810     -0.004369     -0.028627
Li	      4.09306      0.15230      4.19620        -0.053375      0.026866      0.002406
Li	      6.10769      2.01221      4.24420        -0.048096      0.018473      0.087082
Li	      2.21403      1.93782      4.14984         0.054388     -0.026255     -0.084545
Li	      4.14840      1.95169      6.05499         0.110219     -0.030389     -0.032364
Li	      4.15944      6.09506      6.29956         0.051304      0.041792      0.028104
Li	      6.12159      6.14523      8.25202        -0.045337      0.004022     -0.003048
Ti	     10.31448      8.20374     10.48860         0.014569      0.105334      0.369785
Mn	      6.23216      8.07008      6.22901        -0.175924     -0.086037      0.171085
Mn	      4.13072      4.09299      8.27856        -0.097675      0.002582     -0.086690
Co	      6.22846      2.03613      8.27090         0.035655     -0.115130      0.224790
Co	      2.06764      6.10841      4.17194        -0.395162      0.114860      0.602705
Ni	      2.10237      0.03909      2.09713        -0.033980      0.017368     -0.058248
Ni	      8.37237      4.02068      8.18268         0.031844     -0.054762     -0.045140
Ni	      4.21600      4.00792      4.11581        -0.014370      0.054203      0.008723
Ni	      6.31387      4.09068      6.14013        -0.074183     -0.064599      0.065856
O	      1.88331      2.05877      2.10127         0.089154      0.045353     -0.048404
O	      4.14631      4.21530      2.09653        -0.021599     -0.018029     -0.084429
O	      4.17607      2.08025      4.08248        -0.047091     -0.153685      0.024213
O	      6.17351      4.03406      4.15073         0.181020      0.016021     -0.066245
O	      6.20055      2.09979      6.41608         0.008508     -0.087191     -0.271650
O	      8.27952      4.03812      6.23266         0.099689      0.025448     -0.114222
O	      2.00895      4.16458      4.21052        -0.035319     -0.002679     -0.024383
O	      3.99957      6.14215      4.04869         0.533203      0.159111      0.022799
O	      4.04670      4.04526      6.33273         0.041781      0.052367      0.052885
O	      6.19372      6.20613      6.21570         0.034717     -0.088505     -0.037004
O	      6.12984      4.00064      8.34526        -0.079998      0.114811      0.078132
O	      8.39783      6.13026      8.44776        -0.094493      0.138914     -0.612713
O	      2.06763      5.97461      6.12751         0.091692      0.104061      0.261847
O	      4.25189      8.10718      6.14600         0.023644      0.056822     -0.415173
O	      4.09937      5.95206      8.34325         0.089434     -0.109529     -0.007266
O	      6.33239      8.14717      8.14883         0.125555     -0.102355     -0.020271
O	      6.34562      6.00290     10.34742        -0.306120     -0.317047     -0.062117
O	      8.36996      8.01937     10.28375         0.097784      0.022930     -0.003066
