# total energy = -211.34135522 eV
 
CRYSTAL
PRIMVEC
-0.030836 6.250317 6.063120 
6.127654 -0.037458 6.070478 
4.111649 4.198268 -0.052184 
PRIMCOORD
36 1
Li	      6.13256      6.29247     12.02626         0.018125      0.044108      0.067951
Li	      2.08603      6.15512      8.07134         0.011081     -0.048518     -0.028713
Li	      4.16504      6.18877     10.05194         0.050922      0.026780      0.026456
Li	      6.19305      8.17393     10.04178        -0.034744     -0.041443     -0.002236
Li	      6.11312      2.13053      8.04697         0.010472      0.061073      0.035880
Li	      2.03584      2.04249      4.00903        -0.016795      0.025151     -0.032682
Li	      6.01639      4.26126     10.06826         0.018619      0.004997      0.010848
Li	      8.08058      8.31636      8.21014        -0.072484     -0.029616      0.004294
Li	      6.10343      6.31282      8.20258        -0.024564      0.002995      0.030227
Ti	      4.24634      4.09738      3.92731         0.112045     -0.026516     -0.175066
Mn	      8.10848      4.17134      8.06093         0.071776     -0.089797      0.170450
Mn	      4.09121      6.24679      6.07858        -0.078463      0.108451      0.013978
Co	      4.07181      8.33041      8.05285         0.007391     -0.044959      0.155667
Co	      6.13010      4.17914      6.07089         0.053687      0.020446      0.016132
Co	      8.13469      6.21233     10.08833        -0.029334      0.072516      0.002369
Cu	      8.09927      2.05910      5.97650         0.076033     -0.051047      0.096520
Ni	      8.19884      6.27599      6.05202         0.008273      0.078786     -0.023257
Ni	      6.10746      8.31206      6.05898        -0.042662     -0.028162     -0.092305
O	      2.12204      2.24728      1.91781         0.001559      0.114321     -0.039575
O	      4.02168      4.09937      2.00503        -0.032544     -0.022586      0.056464
O	      4.04350      2.19913      3.98986         0.009108      0.147956     -0.045907
O	      6.07616      4.21668      4.07717        -0.148037      0.024419      0.039421
O	      6.09981      2.27121      6.05752        -0.068019      0.113603     -0.008965
O	      8.05334      4.28805      6.13347        -0.057421      0.095995     -0.068392
O	      2.09228      4.23838      3.95104         0.013143      0.044694     -0.107721
O	      4.02148      6.12849      4.11335        -0.010185     -0.103119      0.050928
O	      4.14032      4.21929      6.03698         0.179962     -0.053425     -0.042361
O	      6.04268      6.20386      6.02461         0.029440     -0.182353     -0.008883
O	      6.23647      4.14334      7.97957         0.041589      0.026945     -0.096171
O	      8.19104      6.09715      8.13202         0.030989     -0.047092     -0.010850
O	      2.15427      6.12014      5.95190         0.014837     -0.019551      0.035645
O	      4.06543      8.17467      6.13273        -0.058153     -0.063730     -0.039384
O	      4.03411      6.39597      7.97603        -0.015707     -0.037415     -0.024689
O	      5.98461      8.36694      8.02119        -0.091703     -0.049037      0.086976
O	      6.22741      6.18531     10.15445         0.039633      0.026483      0.007928
O	      8.18533      8.13759     10.13200        -0.017869     -0.101354     -0.060975
