# total energy = -211.74286976 eV
 
CRYSTAL
PRIMVEC
0.078068 6.136260 6.299732 
6.197618 0.057828 6.320083 
4.170602 4.143345 -0.000471 
PRIMCOORD
36 1
Li	      8.19079      2.09791      6.27392         0.024153     -0.054221     -0.029270
Li	      6.19210      4.21560      2.17100         0.047828     -0.024007      0.012592
Li	      6.26005      2.19298      4.34430        -0.006530      0.025660     -0.039988
Li	      0.03463      2.02580      2.08555         0.052831     -0.017352     -0.045987
Li	      4.31662      4.24095      4.18538         0.021132     -0.022848      0.015718
Li	      4.24113      2.04062      6.31094        -0.014711      0.013541     -0.074144
Li	      6.21446      4.13118      6.23919        -0.011282      0.040131     -0.054842
Li	      2.21810      6.21159      4.17873         0.015991     -0.013920      0.067282
Li	      4.21184      6.17176      6.19489        -0.013736      0.011515      0.033596
Ti	      2.20929      4.13203      6.26197         0.274895      0.046185     -0.192677
Mn	      4.10098      2.12464      2.16223         0.118824     -0.298676      0.093244
Mn	      6.28535      6.15772      8.40674        -0.510675      0.253971     -0.019058
Co	      6.15478      0.09461      6.29174        -0.006791      0.076445      0.012289
Co	      4.20832      6.17500     10.49840        -0.112682      0.158411      0.011324
Co	      6.25803      6.18591      4.24323         0.092777     -0.028804     -0.012043
Cu	      8.30234      4.18778      8.38942        -0.204038      0.140451     -0.008173
Cu	      4.18838      8.16094      4.20589         0.010766     -0.007160      0.088180
Cu	      8.40615      8.22224      8.42568        -0.051530      0.057681     -0.172953
O	      6.34589      4.26987      8.24773         0.351546     -0.157003     -0.021608
O	      8.41490      8.38021     10.35574        -0.034232     -0.028048      0.183637
O	      2.18432      2.12712      2.28594        -0.261466      0.082724      0.010557
O	      4.08395      4.04446      2.06244        -0.083277      0.332693     -0.030173
O	      4.06365      2.01516      4.11909        -0.049933     -0.065346      0.058111
O	      6.36860      4.27804      4.22053         0.042733     -0.057131     -0.029357
O	      6.22548      1.91300      6.30385        -0.021653     -0.050209      0.010259
O	      8.46925      4.14622      6.08811         0.012439     -0.045888     -0.037731
O	      2.05308      4.00677      4.37188         0.115357      0.069299      0.228377
O	      4.32632      6.22823      4.20018        -0.026439     -0.025097     -0.043325
O	      4.06546      4.15361      6.46401        -0.191807     -0.036558     -0.192878
O	      6.22759      6.30143      6.23444         0.041248      0.028332      0.060181
O	      8.18284      6.17452      8.46306         0.327099     -0.343734     -0.125769
O	      1.98051      6.05174      6.30374        -0.052695     -0.072168      0.032090
O	      4.23903      8.33700      6.52516        -0.009282     -0.006241      0.046719
O	      4.27049      6.28651      8.49853         0.142311      0.019959      0.083079
O	      6.13167      8.14064      8.38024        -0.036895     -0.054589      0.011768
O	      6.16539      6.10580     10.55513         0.007722      0.052003      0.070972
