# total energy = -92.45408207 eV
 
CRYSTAL
PRIMVEC
2.106809 4.176725 2.106476 
2.143978 -4.213786 2.144313 
4.291769 0.000273 -4.291827 
PRIMCOORD
16 1
Li	      2.33808     -0.00106     -2.12893        -0.125164      0.017612     -0.460860
Li	      2.33740     -2.05609     -0.03655         0.127244     -0.276990     -0.096579
Li	      4.39453     -0.01903     -0.04231         0.372194     -0.054797      0.116905
Li	      4.31686     -2.05544     -2.01691         0.062560     -0.319852     -0.005900
Mn	      0.20550     -0.00123      0.00501        -3.615676     -0.001837     -0.144138
Mn	      2.28222      2.03505     -0.01829         0.031086      1.760932     -0.858334
Ni	      4.39035      2.03548     -2.12646        -0.657640      0.782808      0.203242
Ni	      2.26944     -0.01911      2.08550        -0.173987     -0.117080      1.292945
O	      6.73066     -0.00354     -0.07766         0.278577     -0.248848     -0.471532
O	      4.20771      2.08588     -0.04185        -0.609985     -0.572036      0.241014
O	      4.43292     -0.03414     -2.37584         0.669864     -0.055551      0.503490
O	      4.32851     -0.14167      2.29386         0.104081     -0.686077     -0.417044
O	      4.39597     -2.12448      0.14689         0.073888      0.253013      0.978941
O	      2.16426      2.22316      2.03521         0.750784     -0.726744     -0.648700
O	      2.06124      0.10313      0.02584         1.689193     -0.105161      0.093573
O	      2.31907     -2.26163      2.19059         1.022983      0.350608     -0.327025
