# total energy = -213.59366263 eV
 
CRYSTAL
PRIMVEC
-0.038343 6.192121 6.259545 
6.129851 0.000272 6.222113 
4.104316 4.120288 -0.016566 
PRIMCOORD
36 1
Li	      8.18549      8.17248     12.20294         0.013436      0.052597     -0.006260
Li	      2.11416      6.11471      8.29971        -0.011735     -0.072155      0.014901
Li	      6.21110      8.27738     10.32800        -0.037383     -0.004811     -0.033610
Li	      4.13639      4.06657      4.27338        -0.089660     -0.003972     -0.001987
Li	     10.07437      8.32666     10.39922         0.180415      0.011054     -0.060275
Li	      8.04785      6.39485     10.37906        -0.056196     -0.142037     -0.023660
Li	      4.02583      6.12811      6.20856        -0.022017      0.020288     -0.055474
Li	      8.06695      8.37733      8.38195        -0.095684      0.023739     -0.167588
Li	      6.05292      6.21515      8.31401         0.024329      0.016375      0.002165
Ti	      4.09444      6.23221      2.23795        -0.114239      0.196658      0.353765
Mn	      6.10214      6.19801     12.39713         0.056828      0.072799      0.151342
Mn	      4.09170      8.19428      8.30128         0.265220      0.052096      0.018488
Co	      2.08376      4.11412      2.16144        -0.060481      0.247741      0.084167
Co	      6.17040      6.15083      4.19508        -0.033835      0.417332     -0.084616
Co	      8.18612      6.17495      6.26168        -0.058953     -0.057032      0.091966
Co	      2.03992      4.16381      6.16578        -0.264493     -0.115313      0.441187
Cu	      8.12526     10.23434     10.32654         0.089188      0.111378     -0.053869
Ni	      6.10972      4.10802      6.20920         0.037517     -0.079402      0.056892
O	      8.12391      8.31338     10.30460        -0.028796     -0.041694      0.046185
O	      2.07111      2.15304      2.23000        -0.082264     -0.039480      0.094901
O	      4.04178      4.10285      1.99735        -0.062289      0.045864     -0.027668
O	      3.98171      1.98089      4.33149        -0.022023      0.021548      0.075752
O	      6.18057      4.21989      4.20317        -0.062245     -0.033179      0.001589
O	      6.05563      1.98811      6.36918         0.013279     -0.106937     -0.105456
O	      8.23373      4.21088      6.45830         0.063953     -0.046043      0.030772
O	      2.06065      3.98330      4.17960         0.066222     -0.356770      0.145687
O	      4.17874      6.12635      4.07861         0.088774      0.038886     -0.204902
O	      4.05594      3.96214      6.28817        -0.752089      0.086213     -0.028803
O	      6.26417      6.17050      6.12146        -0.051490      0.824092     -0.140213
O	      6.25933      4.02101      8.28893         0.061163     -0.251045     -0.001875
O	      8.27640      6.06658      8.27521         0.139191     -0.094512     -0.067393
O	      1.85411      6.17033      6.17328         0.094383     -0.719487      0.031738
O	      4.06549      8.42898      6.18038         0.769315     -0.106593     -0.125337
O	      4.05674      6.35204      8.15471        -0.014589     -0.105352     -0.022029
O	      6.01579      8.24150      8.11943        -0.025765      0.092320     -0.370195
O	      6.00186      6.24972     10.55080        -0.016988      0.044837     -0.060286
