# total energy = -215.60523639 eV
 
CRYSTAL
PRIMVEC
0.017776 6.246603 6.125948 
6.354160 0.032580 6.110996 
4.252422 4.170860 0.005155 
PRIMCOORD
36 1
Li	      8.44626      4.20686      4.08610         0.018184      0.006768     -0.021191
Li	      4.27174      6.29167      2.14225         0.041887     -0.061071     -0.023089
Li	      2.07370      4.18514      2.12850        -0.031633      0.027796     -0.046457
Li	      6.28838      6.31313      4.13983        -0.022942     -0.031872      0.050770
Li	      4.17844      4.25016      4.13626         0.009028     -0.030731      0.056474
Li	      6.32832      4.21304      6.10032        -0.039477      0.055329     -0.007116
Li	      4.33969      8.25383      4.12667         0.008211      0.017512     -0.013393
Li	      2.16856      4.09647      6.04278         0.020194     -0.067611      0.046812
Li	      4.36701      6.21232      6.03740         0.120383     -0.013024      0.064155
Ti	      4.13337      2.12722      2.10498        -0.059717      0.029261     -0.001678
Mn	      6.38887     10.39205      8.17588        -0.022206      0.163437     -0.039652
Mn	      2.21667      6.16766      4.10477        -0.113360     -0.056478     -0.003466
Co	      6.33291      0.04304      6.09499        -0.194313     -0.025581     -0.063675
Co	      8.46640      2.22127      6.04164         0.040628      0.011565      0.077789
Co	      4.26063      2.07804      6.08798        -0.192997     -0.134589     -0.046817
Co	      4.35152      4.14476      8.16822         0.286828     -0.017212     -0.248356
Co	      6.38145      6.18119      8.08069         0.251471      0.141967      0.483525
Cu	      6.36630      2.13977      4.10377        -0.071040      0.045777      0.041592
O	      2.18601      1.98647      2.02269         0.150608     -0.177441      0.009044
O	      4.23148      4.06205      1.90325         0.002614     -0.151833      0.095553
O	      4.13845      2.12892      3.97078         0.071391      0.078988     -0.261230
O	      6.37773      4.09909      3.95577        -0.005918      0.006157     -0.252749
O	      6.28300      2.00841      6.11788         0.037572     -0.071445     -0.161157
O	      8.65338      4.27303      6.07566         0.028229      0.080823      0.040555
O	      2.11206      4.32836      4.12096         0.015891      0.084977     -0.055792
O	      4.09082      6.21012      4.13581        -0.155016      0.033432     -0.073731
O	      4.28388      3.99832      6.29280         0.048130      0.087422      0.170135
O	      6.54882      6.25010      6.19126        -0.050216     -0.245779      0.595335
O	      6.28051      4.27622      8.17529        -0.017334      0.844542     -0.234622
O	      8.42626      6.25438      8.28015        -0.855412     -0.087331     -0.035958
O	      1.96668      6.33891      6.11871         0.046177      0.026109      0.110284
O	      4.19046      8.50711      6.19357         0.017935     -0.047676      0.071011
O	      4.36379      6.37140      8.07398         0.586311     -0.001984     -0.057815
O	      6.36814      8.38800      8.13519        -0.073114     -0.376406      0.077065
O	      6.52172      6.40271     10.22896         0.119558     -0.065089     -0.323332
O	      8.59154      8.25920     10.10172        -0.016532     -0.078709     -0.018823
