# total energy = -209.81807130 eV
 
CRYSTAL
PRIMVEC
0.020915 6.296581 6.223637 
6.236917 -0.010553 6.255039 
4.158500 4.219337 -0.007724 
PRIMCOORD
36 1
Li	      4.17629      4.22191      0.02812         0.080190     -0.086944      0.040527
Li	      8.34628      8.37262     12.39225         0.055348     -0.028386     -0.053461
Li	      2.09759      6.34381      8.19447        -0.005375      0.036659     -0.076921
Li	      8.35875     10.40877     10.46357         0.032214     -0.054866      0.006461
Li	      6.22610      2.08417      8.26587         0.005959     -0.031195      0.011599
Li	      8.36691      4.17550      8.21979         0.048912     -0.042763      0.019392
Li	     10.29840      8.36341     10.44609        -0.040333     -0.010390      0.065563
Li	      8.33673      6.42054     10.48537        -0.037839      0.049936      0.017661
Li	      4.08115      6.36538      6.23240        -0.019279      0.065051     -0.002264
Ti	      6.23173      6.19662      8.44049         0.014536     -0.018056      0.674128
Mn	      6.23102      6.31625      4.14234        -0.060760      0.059178     -0.224938
Mn	      2.05449      4.27757      6.22859        -0.152067      0.150915     -0.038506
Fe	      4.16686      4.29006      4.07621        -0.064211     -0.049638      0.191937
Co	      6.35153      8.35515     10.46547        -0.080243     -0.027610      0.119203
Cu	      4.14766      8.40330      8.26647        -0.036359     -0.004880      0.009013
Cu	      8.35449      6.25531      6.25426        -0.051845     -0.056881     -0.130351
Cu	      6.33393      4.12008      6.27504        -0.109701     -0.217090     -0.012791
Ni	      8.32805      8.43063      8.34369        -0.051594      0.053243      0.007390
O	      2.12360      6.12214      6.20053        -0.029692     -0.042960      0.010331
O	      4.30927      8.42527      6.28845         0.002403      0.009058     -0.140055
O	      2.16267      2.08109      2.26305        -0.134839     -0.042435      0.156365
O	      4.14284      4.08861      2.19261         0.086073      0.090446     -0.147386
O	      4.11371      2.14929      4.16119        -0.043411     -0.026241      0.081033
O	      6.18749      4.33694      4.27445         0.195484      0.044858      0.005001
O	      6.14175      2.02375      6.23938         0.140439      0.150269     -0.040996
O	      8.24768      4.30170      6.24439         0.027633     -0.152827     -0.011901
O	      2.12859      4.07960      4.27885        -0.091204     -0.030422     -0.003758
O	      4.32879      6.25765      4.11544         0.045357      0.153330      0.011058
O	      4.08263      4.13510      6.22076        -0.024168      0.155562     -0.083356
O	      6.29160      6.48342      6.14409        -0.039582      0.061303      0.026943
O	      6.21265      4.30921      8.25650         0.181453      0.086493     -0.080972
O	      8.20095      6.36551      8.22804        -0.089742     -0.086489      0.157327
O	      4.30164      6.35031      8.27035         0.122656     -0.018202      0.024902
O	      6.22954      8.34960      8.20366         0.045656     -0.009961     -0.019083
O	      6.27193      6.32003     10.27378        -0.056770     -0.158172     -0.674755
O	      8.28208      8.41733     10.34687         0.134702      0.030107      0.105661
