# total energy = -209.83992999 eV
 
CRYSTAL
PRIMVEC
-0.014752 6.176029 6.453020 
6.134562 0.006810 6.431899 
4.101881 4.115114 -0.007460 
PRIMCOORD
36 1
Li	      6.09309      6.16606     12.73376        -0.008022     -0.042361      0.066329
Li	      2.12538      8.20535      6.41047         0.038577      0.006420      0.066362
Li	      4.10057      8.11140      8.61621        -0.038680      0.031499      0.001658
Li	      4.15413      6.14265     10.55153        -0.005695      0.044875     -0.068672
Li	      2.07599      2.01371      4.25686        -0.087441      0.049658     -0.056330
Li	     10.10731      8.33154     10.73688         0.074056     -0.110116     -0.013234
Li	      4.02807      6.19019      6.57077        -0.086128     -0.005775     -0.028246
Li	      8.14416      8.35560      8.74275         0.077813     -0.022758     -0.009694
Li	      6.00960      6.21450      8.68454         0.059094     -0.074611      0.011706
Ti	      5.98573      8.18802      6.46671        -0.500887      0.381866      0.072308
Mn	      2.05082      4.05573      2.22029        -0.039573      0.312477      0.087659
Mn	      6.12496      4.16644      6.42617         0.105906     -0.060156      0.233290
Fe	      8.12674      6.28760     10.76961         0.438580     -0.356841     -0.119271
Co	      4.11731      4.10580      4.25724        -0.224056      0.134115      0.086234
Cu	      2.11956      6.16897      8.61006        -0.156902      0.143837     -0.222830
Cu	      6.13608      8.23132     10.69860        -0.054715      0.099983      0.107476
Cu	      4.10032      6.18825      2.20976         0.047397      0.079893      0.060872
Cu	      4.10121      2.06865      6.41771        -0.054028     -0.042538      0.018805
O	      4.00541      6.16763      8.58247         0.043037      0.022954     -0.095272
O	      6.17593      6.24767     10.71618        -0.414886      0.569796      0.017220
O	      8.13400      8.21648     10.77315        -0.601137      0.259586     -0.071759
O	      1.99418      2.12535      2.15892         0.151521     -0.153439     -0.022596
O	      4.05172      4.16589      2.29496         0.244060     -0.198416      0.032065
O	      4.18746      2.19614      4.25626         0.533778     -0.185134     -0.145261
O	      6.05377      4.08199      4.27866         0.058617     -0.463212      0.050518
O	      6.04438      2.21915      6.63885         0.054074      0.119662     -0.044489
O	      8.10847      4.17596      6.70307        -0.016246     -0.088233     -0.003141
O	      2.16340      4.09038      4.22391         0.024962     -0.004471      0.136371
O	      4.03077      6.02694      4.21665         0.114929      0.022751      0.010839
O	      4.14788      4.10884      6.20678        -0.126611     -0.051959     -0.149930
O	      6.21728      6.16023      6.39104        -0.074743      0.090407     -0.039474
O	      6.26838      4.07451      8.65706        -0.073975      0.142233      0.070317
O	      8.22849      6.06727      8.74570        -0.073701     -0.213045     -0.055455
O	      2.03874      6.04895      6.28357        -0.099724     -0.329539      0.177555
O	      4.17725      8.19892      6.34699         0.672982      0.004731      0.028425
O	      6.16667      8.26961      8.30290        -0.002231     -0.114140     -0.190356
