# total energy = -209.54695466 eV
 
CRYSTAL
PRIMVEC
0.030866 6.193000 6.178112 
6.254944 -0.002567 6.211832 
4.142188 4.123268 0.026217 
PRIMCOORD
36 1
Li	      6.26435      4.07487      2.18510         0.000848     -0.008687      0.045206
Li	      4.27256      8.19597      8.33867         0.094832     -0.005149     -0.024958
Li	      6.25759      8.27359     10.18096         0.002767     -0.011697     -0.100743
Li	      2.05362      4.10553      2.17356         0.017093     -0.008521      0.067898
Li	      2.20693      2.06926      4.06414         0.025728     -0.031357     -0.025676
Li	      4.10747      4.03979      4.12215        -0.033453     -0.021919     -0.039956
Li	      4.10874      2.13020      6.15919        -0.011648      0.020253     -0.041404
Li	      8.23257      8.22786      8.29942        -0.005306      0.009343     -0.026502
Li	      6.28904      6.32764      8.25348         0.027084      0.022522     -0.015271
Ti	      4.10365      4.09598      0.08987        -0.003439     -0.106405      0.257484
Mn	      4.18532      6.24592     10.20810        -0.024637      0.041396     -0.130093
Mn	      4.14492      6.18774      2.12255        -0.057183     -0.092234      0.178521
Fe	      6.13583      4.24301      6.21955         0.046032     -0.040650     -0.070000
Co	      8.34833      6.19939     10.31510         0.063235     -0.025945     -0.115161
Ni	      2.06103      2.05602      0.06221         0.052791     -0.042341      0.015564
Ni	      6.29781      4.14071     10.26987         0.031034     -0.032566     -0.047446
Ni	      2.16466      4.10241      6.20297         0.049529     -0.063266     -0.228028
Ni	      4.16934      6.20016      6.29745        -0.027914      0.037849     -0.042187
O	      6.27718      8.26059      8.06456        -0.026962      0.046673      0.626927
O	      1.89967      2.05330      2.07308        -0.086674     -0.010948      0.121015
O	      4.13440      4.20869      1.97879        -0.022925      0.048248     -0.227634
O	      4.20725      1.89353      4.11470         0.016030     -0.082615      0.006573
O	      6.42040      4.07290      4.26462         0.077639      0.000023     -0.049775
O	      6.24312      1.99884      6.35336        -0.105120      0.032732      0.002538
O	      8.41414      4.10285      6.08905         0.015819      0.130267      0.030571
O	      2.06854      4.26495      4.26086         0.025030      0.064364     -0.280299
O	      4.01928      6.21607      4.06963        -0.066265     -0.107444     -0.106850
O	      4.19075      4.17903      6.14404         0.313557     -0.118358      0.009201
O	      6.18811      6.19994      6.21237         0.123294     -0.297543      0.005472
O	      6.29134      3.97637      8.18449        -0.011649     -0.020849     -0.036432
O	      8.46074      6.14984      8.42168         0.013853      0.027556      0.062998
O	      2.05641      6.18068      6.07135        -0.206669      0.146299     -0.069433
O	      4.19988      8.31010      6.21876        -0.178222      0.293834      0.054962
O	      4.19078      6.17091      8.36935         0.046934      0.007050      0.203569
O	      6.31018      6.20180     10.40426        -0.050109      0.121121      0.082644
O	      8.40198      8.23109     10.40664        -0.124952      0.078964     -0.093298
