# total energy = -212.08633808 eV
 
CRYSTAL
PRIMVEC
0.025146 6.410388 6.058820 
6.093146 0.045548 6.038104 
4.091445 4.288804 0.001476 
PRIMCOORD
36 1
Li	      4.07620      2.23669      2.04695        -0.056378     -0.094828      0.031770
Li	      8.12706      4.33198      4.04443        -0.044068      0.040281     -0.008221
Li	      6.05421      2.24320      4.04798        -0.005815      0.077400      0.003889
Li	      4.03007      6.25182      2.02733        -0.017345      0.085512      0.010634
Li	      2.16066      4.36866      1.99903        -0.110714      0.053970      0.015962
Li	      4.06827      4.20110      3.97623         0.045052     -0.052029      0.117432
Li	      2.15685      6.45290      4.02809         0.028668      0.016534     -0.068027
Li	      4.01770      6.35289      6.04239         0.021026      0.018825     -0.024429
Li	      8.14963      8.57190      8.10002         0.050960     -0.025749      0.019587
Ti	      6.03572      6.58095      8.12256        -0.116841     -0.109139     -0.101133
Mn	      6.10346      4.24904      6.06949        -0.089494     -0.042622      0.087431
Mn	      6.09594      4.31043     10.03778        -0.108736     -0.277437     -0.101770
Fe	      2.06413      2.15304      3.90228        -0.013860     -0.101950      0.202924
Co	      0.05031      6.40469      6.05560        -0.572606      0.592059      0.683111
Co	      2.05659      4.28098      6.04808         0.705007     -0.025309      0.223558
Cu	      2.05046      2.12465      0.05019         0.216496     -0.015353     -0.114306
Ni	      6.17430     10.66947      8.09868         0.317166     -0.013713      0.210525
Ni	      4.07600      2.17045      6.05292         0.152691      0.021960     -0.053987
O	      2.07485      2.06725      1.98760        -0.023530      0.046952     -0.003006
O	      4.14212      4.24974      1.89000        -0.211186      0.009922     -0.516869
O	      4.00124      2.17564      4.15266         0.100043      0.019216     -0.428798
O	      6.07571      4.39527      4.14140        -0.028426      0.049520     -0.271585
O	      6.15550      2.01456      6.02258         0.048500      0.777206     -0.075542
O	      8.14283      4.49173      6.05442        -0.108909     -0.254813      0.003065
O	      1.97732      4.23272      4.10924        -0.109561     -0.011607     -0.408833
O	      4.15622      6.66439      4.02877        -0.080336      0.046740     -0.075917
O	      4.07006      4.15698      6.04840         0.512680      0.273723     -0.047346
O	      6.09847      6.57134      6.07962        -0.188165     -0.350261      0.134399
O	      6.10298      4.46954      8.06782        -0.001068      0.102437      0.240669
O	      8.04341      6.46890      7.95592        -0.129922      0.016074      0.430057
O	      1.96649      6.18886      6.06668         0.634105      0.216527     -0.068563
O	      4.19723      8.72945      5.94597        -1.038854     -0.809909     -0.315348
O	      4.15604      6.46495      8.05389         0.394619     -0.016354      0.069727
O	      6.13603      8.52854      8.02412        -0.136213     -0.264263      0.236200
O	      6.15339      6.33889     10.05885        -0.052143     -0.026991      0.098253
O	      8.32068      8.59586     10.19745         0.017154      0.027471     -0.135513
