# total energy = -92.10967626 eV
 
CRYSTAL
PRIMVEC
2.117086 4.197099 2.116751 
2.154436 -4.234341 2.154773 
4.312704 0.000275 -4.312763 
PRIMCOORD
16 1
Li	      2.38178     -0.00125     -2.12892        -0.145911      0.021910     -0.539686
Li	      2.37058     -2.05572     -0.02658         0.151642     -0.328350     -0.108627
Li	      4.43751     -0.01922     -0.04273         0.441307     -0.060122      0.135609
Li	      4.36940     -2.05507     -2.02631         0.076704     -0.368111     -0.014559
Mn	      0.24938     -0.00142      0.00486        -4.387789     -0.018150     -0.167444
Mn	      2.31505      2.03429     -0.00796         0.049724      2.073985     -0.968857
Ni	      4.44380      2.03473     -2.13675        -0.760085      0.903316      0.227179
Ni	      2.31267     -0.01930      2.08485        -0.193258     -0.136581      1.523635
O	      6.79649     -0.00357     -0.07842         0.274611     -0.288845     -0.562989
O	      4.24886      2.10628     -0.04226        -0.678743     -0.671827      0.252913
O	      4.47627     -0.03448     -2.39908         0.794513     -0.052786      0.607508
O	      4.37084     -0.14306      2.31629         0.100940     -0.764431     -0.497496
O	      4.43896     -2.14525      0.14833         0.088998      0.288397      1.087061
O	      2.18542      2.24491      2.05511         0.872099     -0.867304     -0.739936
O	      2.08139      0.10415      0.02608         2.145128     -0.149467      0.134383
O	      2.34175     -2.28375      2.21202         1.170121      0.418366     -0.368694
