# total energy = -212.26307923 eV
 
CRYSTAL
PRIMVEC
-0.001242 6.244350 6.338121 
6.201830 -0.003886 6.341101 
4.123390 4.153404 0.008923 
PRIMCOORD
36 1
Li	      8.23848      8.34637     12.61109         0.028058     -0.029585      0.013848
Li	     10.11671      6.30460      8.43030         0.042622      0.056845     -0.008025
Li	      8.17831      4.35277      8.45639        -0.100474      0.012104      0.028129
Li	      4.08268      4.15770      4.28209         0.022176      0.015640      0.043270
Li	      8.24822      6.31243      6.58678        -0.005716      0.038686     -0.007816
Li	      6.19376      4.08761      6.50367        -0.028537     -0.029143      0.095574
Li	      8.24741      6.30049     10.32400         0.016546      0.003499     -0.014341
Li	      8.32107      8.09213      8.43984         0.089716      0.032539     -0.101210
Li	      6.41213      6.17454      8.45963        -0.047465     -0.131515      0.010645
Ti	     10.17655      4.24469      6.33244        -0.221358      0.133982     -0.105720
Mn	      6.17774      4.16328      2.12881        -0.027010      0.074976     -0.036864
Mn	      2.08685      2.09422      4.23038        -0.128528     -0.045540      0.002933
Fe	      4.16266      6.14843      6.33501        -0.039231      0.137392     -0.009455
Co	      4.11110      2.09908      2.11754        -0.063293      0.008922      0.067263
Co	      6.15168      4.13156     10.29554        -0.085755     -0.015794      0.946420
Ni	      8.27475     10.36485     10.58421         0.029325      0.126601     -0.029229
Ni	      6.25616      8.30424     10.57929        -0.136924     -0.020082     -0.032495
Ni	      2.10832      4.13720      6.33661        -0.025485     -0.045068     -0.005164
O	      8.25404      6.22124      8.47125         0.005863      0.030632      0.009145
O	      2.15439      1.96170      2.24235         0.043200     -0.049262      0.023650
O	      4.24972      4.05863      2.03536         0.009014     -0.019721     -0.040292
O	      4.06363      2.05130      4.05951        -0.047662      0.073343     -0.041155
O	      6.20268      4.21495      4.07216        -0.066245      0.032457     -0.013374
O	      6.21609      1.95231      6.29106         0.026174     -0.171920     -0.029125
O	      8.35312      4.12246      6.35266         0.299963     -0.027675      0.020860
O	      2.01221      3.98258      4.26064        -0.265267      0.063917     -0.449352
O	      4.26087      6.27737      4.30000         0.077831     -0.090745      0.075323
O	      4.09927      4.26052      6.35000         0.202331     -0.155194     -0.025889
O	      6.17589      6.22412      6.16338         0.078811     -0.111522     -0.040802
O	      6.19349      4.17455      8.52556        -0.021281      0.014519     -0.337987
O	      2.07210      6.23097      6.52887        -0.025170      0.131804      0.037083
O	      4.17949      8.33549      6.49835        -0.183365     -0.001844     -0.001216
O	      4.01343      6.40708      8.42064        -0.018402      0.041002      0.013172
O	      6.05438      8.45880      8.51326        -0.028482      0.043402      0.032597
O	      6.22065      6.18202     10.71894         0.128046      0.096693      0.198798
O	      8.30215      8.37579     10.58571         0.465974     -0.224348     -0.289200
