# total energy = -214.09915252 eV
 
CRYSTAL
PRIMVEC
-0.016499 6.197380 6.130842 
6.324239 -0.016940 6.131384 
4.212069 4.127916 -0.007419 
PRIMCOORD
36 1
Li	      6.30152      4.12585      2.16656        -0.050868      0.029076     -0.003169
Li	      8.37083      4.10078      4.08127         0.063838      0.000151     -0.003319
Li	      6.33856      2.13212      4.08785        -0.008698     -0.085097     -0.014039
Li	      2.10400      4.12895      2.17829         0.062626      0.014841      0.010900
Li	      6.22587      6.16901      4.13752         0.010948      0.074490     -0.058167
Li	      4.22820      4.19697      4.12941        -0.077333      0.009201     -0.071516
Li	      0.10697      4.11907      4.09032         0.007294     -0.036804      0.018961
Li	      2.09550      6.09861      4.06735         0.025113      0.021577     -0.065523
Li	      4.24278      6.14026      6.01075        -0.028975      0.050899     -0.039821
Ti	      4.12480      2.12296      2.19553        -0.140379      0.258751      0.563970
Mn	      4.22808      6.16182      2.11792        -0.006547     -0.165360      0.227585
Mn	      6.29790      6.17939      8.23207         0.229921      0.030587      0.455622
Fe	      8.46866      8.21229     12.08768        -0.034627      0.075928      0.055681
Co	      6.32764      6.16444     12.15664        -0.017171     -0.004505     -0.077917
Co	      4.18143      2.04378      6.04148        -0.011601     -0.154075     -0.029522
Co	      8.38660      8.29054      8.24651        -0.095389     -0.037256      0.230750
Cu	      6.28405      4.15866      6.03709         0.094445     -0.026403      0.440464
Cu	      2.08028      4.15306      6.04032         0.107723     -0.040602      0.334388
O	      4.20599      6.21199      3.92812         0.031548     -0.008003      0.012309
O	      2.21276      2.03585      1.93265         0.133320     -0.040219      0.105937
O	      4.23356      4.06384      2.03148         0.029243     -0.212716      0.049541
O	      4.21380      2.06204      4.01755         0.004095      0.054868     -0.566074
O	      6.31089      4.12027      4.19344        -0.004481      0.075810      0.226890
O	      6.38733      1.96875      6.25745         0.025259      0.330986     -0.170274
O	      8.66921      4.06657      6.09635        -0.134923      0.173840     -0.013623
O	      2.12838      4.09628      4.17796        -0.009711     -0.045444     -0.104206
O	      4.12274      4.12152      6.31864        -0.047762      0.015269     -0.106671
O	      6.33209      6.18264      6.26194        -0.092428     -0.107379     -0.519183
O	      6.29316      4.17274      8.07612         0.067117      0.067442     -0.571359
O	      8.31189      6.25456      8.13691        -0.102695      0.032184      0.071569
O	      1.92180      6.24867      6.09800         0.036956     -0.250001      0.005749
O	      4.13608      8.31169      6.15164         0.181782     -0.102233      0.049855
O	      4.35537      6.24236      8.16018        -0.160235     -0.081665      0.023164
O	      6.20299      8.13552      8.10808        -0.030396      0.039821     -0.158447
O	      6.31912      6.18346     10.09198        -0.002139      0.007166     -0.007129
O	      8.40407      8.25665     10.17756        -0.054871      0.034874     -0.303376
