# total energy = -214.80918974 eV
 
CRYSTAL
PRIMVEC
0.024815 6.267347 6.262727 
6.281556 0.051019 6.236675 
4.198656 4.171974 0.022879 
PRIMCOORD
36 1
Li	     10.39919      4.18359      6.27423        -0.061616     -0.031105     -0.008841
Li	      6.24623      4.14028      2.15456        -0.025440      0.011574      0.044869
Li	      4.19239      2.17661      2.15308        -0.039947      0.043692      0.011944
Li	      8.36896      4.30385      4.26194        -0.023176      0.036195      0.002196
Li	      6.19331      2.16432      4.19125        -0.003725      0.029865      0.019450
Li	      4.23955      4.07768      4.13618         0.048830     -0.020563     -0.018058
Li	      4.26455      2.06359      6.06037         0.074889      0.004941     -0.036761
Li	      4.20276      8.34477      4.28561        -0.002650      0.025056     -0.019077
Li	      6.24307      8.36060      6.31151        -0.024804     -0.022007      0.032907
Ti	      1.99236      6.17828      4.22504        -0.383681     -0.092805      0.087597
Mn	      4.21921      6.30739      6.23820         0.021056     -0.247255      0.001088
Mn	      8.37686      8.41872      8.36959         0.187781     -0.117637     -0.080982
Fe	      0.10258      1.99697      2.03882        -0.152056      0.190851     -0.012537
Co	      2.16700      4.17054      2.07531        -0.020677     -0.144922     -0.159611
Co	      6.28891      4.22360      6.22065        -0.015526     -0.131403      0.393565
Co	      6.28489      6.36601      8.38623         0.122869     -0.111030     -0.164843
Ni	      8.42856      8.44901     12.48338        -0.049109     -0.007906     -0.067079
Ni	      2.18199      2.09306      4.15756        -0.050638      0.028148     -0.030758
O	      2.02937      2.09429      2.10711         0.092978      0.067242     -0.042520
O	      4.19117      4.27941      2.01467         0.020441     -0.203413      0.019559
O	      4.12125      2.11066      4.14133         0.139592      0.034371     -0.016362
O	      6.30401      4.27175      4.39522        -0.059597     -0.137368     -0.380553
O	      6.32972      2.30173      6.29388        -0.074033      0.002378      0.005534
O	      8.20969      4.20336      6.30523         0.086244      0.242493      0.106237
O	      2.10222      4.27349      4.11820        -0.021599      0.323542     -0.036429
O	      4.21641      6.26365      4.25983        -0.067154      0.040914      0.040225
O	      4.30433      4.30103      6.36434         0.004684      0.134094      0.094565
O	      6.15942      6.18053      6.27213        -0.026008      0.163793      0.403777
O	      6.21119      4.22252      8.22751        -0.077909      0.475817      0.099248
O	      8.49029      6.42983      8.42179        -0.031159      0.025545      0.073970
O	      2.26390      6.29887      6.13678         0.008488     -0.125097     -0.154762
O	      4.19361      8.17310      6.30099         0.109050      0.026159      0.013993
O	      4.19476      6.15652      8.20895         0.096715      0.082331     -0.071129
O	      6.49698      8.34706      8.31638        -0.122417     -0.582276      0.099643
O	      6.41561      6.28322     10.46207         0.300670      0.063314     -0.184077
O	      8.43101      8.28848     10.30336         0.018629     -0.077530     -0.065988
