# total energy = -217.61863152 eV
 
CRYSTAL
PRIMVEC
-0.022935 6.274363 6.381623 
6.166679 0.007860 6.350302 
4.108315 4.159668 0.008077 
PRIMCOORD
36 1
Li	      6.21650      6.23951     12.52526        -0.009942     -0.099898     -0.077238
Li	      2.09225      6.18162      8.43153         0.033963     -0.069105     -0.007518
Li	      4.19112      6.16071     10.57079         0.040501      0.005894     -0.029557
Li	      6.26250      8.26673     10.54317        -0.019198     -0.003038     -0.014056
Li	      4.09470      8.41497      4.38141        -0.003468      0.060779      0.141029
Li	      2.00452      6.32905      4.37095        -0.017045     -0.007660      0.111638
Li	      2.03566      4.28535      6.40129        -0.090943      0.012804      0.043758
Li	      4.01289      6.31751      6.43014        -0.007760      0.102724      0.011688
Li	      8.14242      8.43899      8.58348        -0.020950      0.072025      0.052361
Ti	      6.16640      4.20475      6.36058         0.109510      0.148160     -0.287005
Mn	      8.22190      8.28189     12.61396         0.451692     -0.023384     -0.149776
Mn	      4.05531      4.16044      4.26077         0.051222     -0.100098      0.142290
Fe	      6.18244      6.35823      8.70133        -0.388591      0.085928     -0.140946
Co	      4.10455      8.29402      8.46086         0.241599      0.279759      0.021517
Co	     10.25199      6.27373      8.49823        -0.170162     -0.087200      0.011723
Co	      6.12678      6.25125      4.25602        -0.027139      0.004869     -0.065341
Co	      8.24600      6.18030      6.33629         0.010971      0.032802     -0.124691
Cu	      8.20403      4.21285      8.52310        -0.098142      0.036086     -0.059529
O	      1.98098      2.20552      2.24704         0.560795     -0.127284      0.092893
O	      4.05370      4.03527      2.33558         0.009833     -0.095243     -0.170044
O	      3.97148      2.20267      4.23475        -0.067351      0.076842      0.275966
O	      6.01656      4.27057      4.29493        -0.050022      0.004061      0.084316
O	      6.23803      2.16884      6.40420        -0.021699      0.151676     -0.213951
O	      8.11180      4.06349      6.21704        -0.216576      0.026087     -0.055591
O	      2.14178      4.02715      4.37258         0.035585     -0.059504      0.109089
O	      4.17317      6.10573      4.15695         0.067253     -0.125400      0.437973
O	      4.19460      4.13276      6.21086         0.071281      0.017297      0.001690
O	      6.16112      6.14754      6.19385         0.032760     -0.191845      0.076986
O	      6.14151      4.33274      8.30172        -0.130896     -0.285064     -0.067902
O	      8.24638      6.19103      8.39081        -0.217013      0.000437     -0.087920
O	      2.01360      6.44841      6.42619        -0.015899      0.086791     -0.027609
O	      3.92724      8.38640      6.48103        -0.182253      0.021779     -0.216792
O	      4.13782      6.41629      8.51242         0.190568      0.011661      0.027458
O	      6.14313      8.29199      8.45950        -0.208763      0.068738      0.014952
O	      6.18534      6.25859     10.54229         0.084138      0.006323      0.161864
O	      8.23892      8.32796     10.78837        -0.027858     -0.038797     -0.023724
