# total energy = -218.23451040 eV
 
CRYSTAL
PRIMVEC
0.043669 6.168409 6.238434 
6.187687 0.028496 6.252911 
4.132391 4.129813 0.012368 
PRIMCOORD
36 1
Li	      2.16203      8.18202      6.14414        -0.005570     -0.077218     -0.000884
Li	      2.08796      6.18972      8.28083         0.037068     -0.044585     -0.051480
Li	      6.19874      2.09767      4.17529         0.026934      0.011932      0.015982
Li	      2.08906      4.18365      2.18808        -0.020116     -0.068030      0.029133
Li	      4.04174      4.13611      4.25724         0.036125      0.002055      0.040885
Li	      4.13445      2.12560      6.27755         0.006306     -0.002852     -0.071868
Li	      4.22691      8.18921      4.25242        -0.021856     -0.018447      0.047772
Li	      8.25979      6.18915     10.38862        -0.019103      0.037904      0.153552
Li	      4.07340      6.15808      6.17205        -0.012951      0.008015     -0.041233
Ti	      8.38524     10.23105     10.44050         0.167734     -0.355779      0.133223
Mn	      4.14418      6.16299      2.15406        -0.022136      0.071042     -0.035407
Mn	      6.13993      4.16148      6.24722         0.120101     -0.006473     -0.128877
Fe	      4.08741      2.14569      2.08823         0.041498     -0.175128     -0.108270
Co	      0.11489      6.17598      6.24310        -0.167118      0.132582     -0.329347
Co	      6.20687      6.21473      4.19677        -0.089385      0.027274      0.181795
Co	      2.08205      4.09974      6.20696         0.061435     -0.016812     -0.007038
Co	      6.25376      6.20118      8.31627         0.392825     -0.041809     -0.013902
Ni	      8.23798      8.24955      8.31127        -0.062496      0.206110      0.063558
O	      2.10122      2.07321      2.24692        -0.184108     -0.003754     -0.004227
O	      4.15039      4.11022      2.06148        -0.048099      0.527518     -0.106281
O	      4.03633      2.00935      4.10069         0.013463     -0.023653      0.041637
O	      6.29087      4.20830      4.30701         0.053882      0.028080      0.018485
O	      6.25611      2.15186      6.42080        -0.042116      0.095154      0.025766
O	      8.45192      4.16115      6.14098        -0.119474      0.002565     -0.163739
O	      2.06773      3.97745      4.30103         0.024572     -0.021618      0.054009
O	      4.26332      6.18761      4.04257         0.032761     -0.014645     -0.066655
O	      4.03660      4.14983      6.27063        -0.055203     -0.019362     -0.120613
O	      6.19250      6.18992      6.26431         0.013622     -0.129497     -0.990918
O	      6.19490      4.23320      8.18526         0.084563     -0.963876     -0.001620
O	      8.20843      6.21955      8.36753         0.661357     -0.256265      0.004656
O	      1.97457      6.02544      6.19367        -0.000638      0.032894     -0.023072
O	      4.24226      8.28651      6.30983        -0.041187     -0.230281      0.054914
O	      4.26501      6.23598      8.37896        -0.521951      0.056817      0.197423
O	      6.18161      8.13927      8.21586        -0.145441      0.759611     -0.166431
O	      6.17334      6.24074     10.28600        -0.248206      0.005333      1.256365
O	      8.26843      8.36404     10.37144         0.052908      0.465197      0.112709
