# total energy = -219.34684075 eV
 
CRYSTAL
PRIMVEC
0.025133 6.147086 6.375864 
6.244004 0.018982 6.382085 
4.155959 4.095333 0.019445 
PRIMCOORD
36 1
Li	      4.17688      4.07002      0.19506        -0.043898     -0.007043      0.062562
Li	      6.23727     10.22927      8.51371         0.060998     -0.039995      0.134916
Li	      4.11148      2.18598      2.08886         0.009021     -0.020479      0.098021
Li	      6.24333      2.11068      4.27598        -0.044137      0.114239      0.017277
Li	      2.16839      4.06748      2.12113         0.004332     -0.034116      0.027100
Li	      4.20077      4.09130      4.23845         0.090896     -0.171790      0.012165
Li	      4.16018      8.17481      4.39383        -0.046106      0.089945     -0.000762
Li	      4.12413      6.15320      6.32800         0.065098     -0.027522      0.041387
Li	      4.13942      4.09993      8.33639        -0.006778      0.075158     -0.021471
Ti	      6.07874      6.09279      8.51510        -0.530221     -0.116025     -0.129033
Mn	      2.12951      2.05553      0.06994         0.038050      0.180673     -0.024395
Mn	      4.20701      2.05718      6.38171         0.014586     -0.048949     -0.368998
Fe	      4.19689      6.02958      2.23715         0.122242      0.203614     -0.623567
Co	      2.06743      2.08098      4.23986         0.493609     -0.374978     -0.018774
Co	      4.20297      6.13362     10.60323        -0.164602      0.016756     -0.138227
Co	      6.26322      4.09822      6.37387        -0.036425      0.006059     -0.164930
Co	      8.35213      6.19409     10.61523         0.064227      0.215629      0.425296
Co	      6.09062      8.31539      6.40021         0.015349     -0.200870      0.075069
O	      2.05182      2.05694      2.02593         0.042816      0.017140     -0.060276
O	      4.17244      4.15775      2.19948        -0.043291     -0.101248     -0.048328
O	      4.18019      1.93913      4.43268        -0.082696      0.197468      0.127940
O	      6.40500      4.12756      4.43836        -0.208194      0.147492      0.003907
O	      6.36322      2.15970      6.45979         0.028166     -0.033756      0.059152
O	      8.23347      4.09651      6.40737        -0.001708     -0.080393      0.016382
O	      2.08557      4.11564      4.50637        -0.027685      0.370386     -0.029670
O	      4.18515      6.19267      4.17692        -0.922383      0.056069      0.320573
O	      4.32337      3.98466      6.31648         0.001573      0.068653     -0.024318
O	      6.22040      6.05581      6.45034        -0.019269     -0.005608      0.148520
O	      6.24073      4.15835      8.32905        -0.016647      0.062556      0.182334
O	      8.32356      6.16796      8.41922         0.037601     -0.019249      0.454386
O	      2.08078      6.23109      6.33355         0.017077     -0.124352     -0.594825
O	      4.09795      8.23932      6.40880         0.000920     -0.015894     -0.036298
O	      4.23924      6.11974      8.53745         0.271649      0.009356     -0.144286
O	      6.26139      8.08864      8.23036         0.013167     -0.032506      0.050905
O	      6.25031      6.17000     10.41559         0.814579      0.110183      0.080615
O	      8.35159      8.26631     10.84736        -0.011915     -0.486600      0.089650
