# total energy = -206.32911225 eV
 
CRYSTAL
PRIMVEC
0.008674 6.135395 6.188190 
6.235604 0.024474 6.172525 
4.185254 4.107913 -0.011732 
PRIMCOORD
36 1
Li	      4.22045      8.18180      8.28939         0.053509      0.003605      0.030619
Li	      4.27364      6.11923     10.27879        -0.035734     -0.010224      0.055678
Li	      6.25648      8.12603     10.28961        -0.016112      0.057948     -0.022339
Li	      4.18849      6.16540      2.12133        -0.007103      0.001805     -0.005657
Li	      4.13216      2.10195      6.09543        -0.052316     -0.033270     -0.003006
Li	     10.30507      8.24614     10.33098        -0.008936     -0.032985     -0.038693
Li	      8.33235      6.25590     10.28390         0.037926     -0.013135     -0.005200
Li	      4.20597      6.13740      6.11139         0.030674     -0.053527     -0.031749
Li	      8.34820      8.16965      8.31353         0.024395     -0.051218      0.020087
Ti	      2.15925      4.18964      2.16102        -0.007714      0.373021     -0.044578
Mn	      2.13807      8.16113      6.12790        -0.026499      0.130579     -0.093699
Mn	      6.18936      4.09818      6.15704         0.048351      0.042474     -0.023253
Fe	      2.28628      6.09098      8.29390        -0.107917      0.010156      0.132537
Cu	      6.24263      6.19921     12.22051        -0.055860      0.098502      0.080474
Cu	      6.17818      6.20674      8.29815        -0.027049      0.042323      0.014146
Ni	      6.26275      6.14692      4.10625         0.002165     -0.057847      0.000394
Ni	      4.17999      4.10330      4.11786         0.047353      0.009750     -0.044609
Ni	      2.06220      4.10445      6.15121         0.053908     -0.050512      0.003151
O	      6.22929      6.17007     10.29743         0.081620     -0.055757      0.104101
O	      2.08580      2.05021      1.99096         0.011009      0.106059     -0.141765
O	      4.07797      4.13589      1.98604        -0.203789      0.011996      0.021384
O	      4.08385      2.22722      4.11614         0.091582     -0.218200     -0.045388
O	      6.22114      4.09318      4.14310         0.064320     -0.064413      0.036484
O	      6.37864      2.11652      6.17340         0.065669     -0.156887      0.017889
O	      8.15686      4.01270      6.24785         0.008810     -0.085555      0.058127
O	      2.08393      4.08703      4.08486        -0.081645      0.142745     -0.270097
O	      4.25605      5.98881      4.09222        -0.136789      0.237130     -0.025750
O	      4.27292      4.07587      6.09899        -0.122151     -0.005369      0.078273
O	      6.23881      6.07381      6.18868        -0.006482      0.025517      0.039106
O	      6.29022      4.16081      8.09331         0.081232     -0.135157      0.044547
O	      8.25322      6.06184      8.21722         0.021803     -0.381451      0.060680
O	      2.17958      6.22770      6.30465         0.024836      0.073457     -0.128565
O	      4.09683      8.32632      6.14846        -0.074975      0.002363      0.003803
O	      4.16182      6.14121      8.30404         0.248651      0.004297     -0.062679
O	      6.28307      8.23506      8.13790        -0.006891      0.010643      0.113435
O	      8.35345      8.18400     10.47867        -0.019852      0.021137      0.072110
