# total energy = -206.55470727 eV
 
CRYSTAL
PRIMVEC
0.038179 6.241119 6.189629 
6.238475 0.022915 6.205452 
4.185984 4.198470 -0.012045 
PRIMCOORD
36 1
Li	      4.15490     10.22630      6.15410        -0.028461      0.022807      0.010494
Li	      2.24515      8.42093      6.15342        -0.075778     -0.021912      0.049518
Li	      4.12785      2.17110      1.98783        -0.005622     -0.004015      0.009788
Li	      8.35428      4.24001      4.18642        -0.021048      0.067546      0.015024
Li	      4.19180      6.27261      2.05523         0.007466     -0.008887     -0.033355
Li	      2.20825      2.13802      4.13482         0.051128     -0.041959      0.000709
Li	      4.19297      2.05938      6.13404        -0.015259     -0.019080      0.105927
Li	      4.15575      8.34636      4.26863         0.011071     -0.040656     -0.050182
Li	      6.12972      8.38541      6.11672         0.023306     -0.034221     -0.009635
Ti	      2.02416      0.15326      1.90891        -0.309659      0.491452     -0.277949
Mn	      6.32465      4.17477      6.20273         0.184038      0.152100      0.001873
Mn	      6.24034      6.29441      8.25562         0.225673      0.017378     -0.223521
Fe	      6.21022      2.09879      4.20014         0.028347     -0.010868     -0.093584
Cu	      4.17862      4.18720      4.15930         0.112224     -0.137646     -0.164641
Cu	      2.12248      6.23679      4.13027         0.038992     -0.021295      0.313112
Cu	      8.37967      8.34170      8.24387         0.157953     -0.138153     -0.054155
Ni	      2.16896      4.10429      2.05729         0.014018     -0.033933     -0.146076
Ni	      4.19513      6.35248      6.15934         0.057216      0.066664      0.033349
O	      4.21817      8.31296      6.18555        -0.040827      0.058658     -0.018117
O	      8.30834      8.25853     10.24785         0.062794     -0.160454     -0.112327
O	      2.10230      1.99581      2.10950        -0.012559     -0.493593     -0.041610
O	      4.29338      4.19142      2.08629         0.286727      0.030762     -0.062076
O	      4.26168      2.19066      4.11830        -0.037046      0.114595      0.040535
O	      6.24839      4.19233      4.21252         0.067256      0.030871      0.113120
O	      6.27377      2.28332      6.14832         0.001566      0.017884      0.050793
O	      8.21360      4.21412      6.24642        -0.058300     -0.024200     -0.126359
O	      2.19843      4.23823      4.06978        -0.134480      0.158089      0.134409
O	      4.09601      6.17293      4.15970        -0.022866      0.007834     -0.007083
O	      4.32726      4.23859      6.20731        -0.022997     -0.137104      0.148859
O	      6.27497      6.16932      6.32542         0.024819     -0.096011      0.049474
O	      6.23610      4.18352      8.13100        -0.029360     -0.074645     -0.089306
O	      8.30552      6.28777      8.33110        -0.364530     -0.076667     -0.488187
O	      2.08751      6.26408      6.23740        -0.080408     -0.008834      0.669762
O	      4.12451      6.16462      8.26739         0.120431      0.258489      0.099174
O	      6.39360      8.43788      8.28494        -0.194451      0.121306      0.070645
O	      6.28439      6.31302     10.19314        -0.021371     -0.032302      0.081596
