# total energy = -91.25210026 eV
 
CRYSTAL
PRIMVEC
2.137641 4.237848 2.137302 
2.175353 -4.275451 2.175693 
4.354575 0.000277 -4.354635 
PRIMCOORD
16 1
Li	      2.47013     -0.00164     -2.12858        -0.186752      0.029863     -0.687859
Li	      2.43759     -2.05469     -0.00635         0.197737     -0.432649     -0.135641
Li	      4.52409     -0.01960     -0.04356         0.575529     -0.072441      0.174635
Li	      4.47541     -2.05402     -2.04510         0.102315     -0.448331     -0.039994
Mn	      0.33840     -0.00181      0.00455        -6.032275     -0.076347     -0.212291
Mn	      2.38134      2.03248      0.01301         0.100614      2.652103     -1.146615
Ni	      4.55162      2.03292     -2.15731        -0.940156      1.101370      0.273133
Ni	      2.40008     -0.01967      2.08325        -0.205807     -0.165470      1.943426
O	      6.92910     -0.00364     -0.07995         0.219898     -0.343860     -0.720521
O	      4.33176      2.14738     -0.04308        -0.783495     -0.855974      0.275527
O	      4.56361     -0.03515     -2.44589         1.024445     -0.038222      0.804991
O	      4.45613     -0.14585      2.36149         0.098077     -0.868819     -0.642530
O	      4.52557     -2.18711      0.15122         0.101809      0.345252      1.232180
O	      2.22807      2.28871      2.09521         1.113736     -1.109617     -0.881866
O	      2.12201      0.10618      0.02660         3.196842     -0.250848      0.207137
O	      2.38744     -2.32831      2.25518         1.417483      0.533991     -0.443712
