# total energy = -207.37419393 eV
 
CRYSTAL
PRIMVEC
0.030317 6.164212 6.387359 
6.206988 0.021186 6.396633 
4.118849 4.096439 0.033950 
PRIMCOORD
36 1
Li	      8.30699      8.19662     12.70239        -0.031287      0.045867     -0.089867
Li	      8.24939      4.09645      4.36496        -0.031715      0.012574      0.055188
Li	      6.19039      2.08691      4.34766        -0.033582      0.014966      0.022051
Li	     10.27638      6.20183      8.55111        -0.053255      0.031087     -0.091841
Li	      6.23320      6.16561      4.33957         0.052828     -0.043871      0.009450
Li	      4.11791      4.08120      4.34736        -0.003352     -0.024964      0.059025
Li	      2.11953      6.20559      4.34930        -0.031646      0.010336      0.012117
Li	      2.10739      4.14837      6.32661         0.008125      0.027518     -0.016342
Li	      8.30359      8.17978      8.60378         0.034975     -0.047411      0.064381
Ti	      6.18235      4.10490      2.21471         0.000462     -0.027776      0.585761
Mn	      2.06672      4.08237      2.19723        -0.007713     -0.007458     -0.124733
Mn	      4.09673      8.17224      4.31735        -0.065621      0.033037     -0.080038
Fe	      6.21040      6.24621      8.59882         0.038495     -0.069021      0.038822
Cu	      4.14913      2.10170      6.33921        -0.095555      0.042047      0.155429
Cu	      6.20657      4.07100      6.30434         0.093942     -0.100087     -0.007718
Cu	      4.14031      6.14894      6.33991        -0.068413     -0.102005      0.126638
Cu	      4.11808      2.06351      2.25042        -0.020186      0.034585      0.236544
Ni	      6.24845      6.21706     12.69383        -0.060254      0.006892      0.057410
O	      4.18010      8.22522      6.20995         0.047730      0.006991      0.027984
O	      8.44413      8.22248     10.63710         0.119406     -0.011030     -0.038174
O	      2.13739      2.09581      2.12425        -0.134331     -0.007314      0.018764
O	      4.08145      4.07471      2.10661         0.000552      0.091696     -0.062821
O	      4.12645      2.06200      4.42554        -0.002868     -0.012439     -0.241722
O	      6.22438      4.11721      4.03545        -0.078539      0.011784     -0.651230
O	      6.10891      2.09815      6.40248         0.179069     -0.007255     -0.021188
O	      8.22955      4.14205      6.59859        -0.077252     -0.132695      0.116493
O	      1.99894      4.12471      4.08478         0.016285     -0.012941     -0.039025
O	      4.14357      6.25989      4.39340         0.088528      0.068952     -0.057890
O	      4.22984      4.10988      6.39464        -0.153416      0.090616      0.002712
O	      6.22850      6.07711      6.52885         0.024344      0.103316      0.020023
O	      6.34521      4.12896      8.70393         0.040739     -0.006726      0.051915
O	      8.20837      6.04183      8.45577         0.068690     -0.039736      0.094461
O	      2.05908      6.16081      6.55724         0.035610      0.038769     -0.041333
O	      4.12646      6.22297      8.38710        -0.026067     -0.086003     -0.079781
O	      6.14653      8.24181      8.56297         0.117095      0.140661     -0.064003
O	      6.21635      6.07768     10.58933         0.008177     -0.072964     -0.047463
