# total energy = -206.71951856 eV
 
CRYSTAL
PRIMVEC
0.011452 6.223726 6.263727 
6.209345 0.039689 6.235544 
4.165618 4.155999 0.000724 
PRIMCOORD
36 1
Li	      2.08427      2.11355      0.09329        -0.020039     -0.000110      0.018718
Li	      4.07346      2.11228      2.11498         0.005306      0.027175      0.025061
Li	      0.11423      2.06767      2.08622         0.008555      0.007742      0.035948
Li	      6.17569      6.18018      4.06017        -0.153996      0.013220      0.025883
Li	      4.22752      4.16386      4.22354         0.005770      0.045742      0.046983
Li	      4.20603      2.08785      6.18770         0.001928      0.004343      0.015373
Li	      6.15545      4.15460      6.21131        -0.068415      0.001921     -0.004868
Li	      4.19072      8.25004      4.19160         0.032481     -0.047381     -0.008807
Li	      4.16848      6.24034      6.21961         0.013061      0.013748     -0.060683
Ti	      2.12143      4.09957      6.15462         0.206399     -0.220723     -0.235865
Mn	      4.13521      4.16337      0.03888        -0.131135      0.092653      0.062561
Mn	      6.17539      6.23354      8.32934         0.051419     -0.061192     -0.097910
Fe	      2.22666      6.28237      4.17300        -0.136538     -0.029544      0.006839
Ni	      6.19192      2.14084      4.19385         0.055977      0.021988     -0.008713
Ni	      2.06767      0.10106      2.11067        -0.015058     -0.020363     -0.042984
Ni	      8.26976      4.21327      4.20054         0.005149     -0.035854      0.091132
Ni	      2.07876      4.07865      2.09247         0.015142      0.037346      0.026478
Ni	      4.17908      4.15432      8.30225         0.056475     -0.063767     -0.019242
O	      2.08318      2.09557      2.12412         0.047772      0.022710     -0.091071
O	      4.15839      4.19075      1.90444        -0.003053     -0.017969     -0.076336
O	      4.32110      2.05541      4.16708        -0.171518      0.100462     -0.011978
O	      6.26510      4.10705      4.10204        -0.130635      0.130210      0.087341
O	      6.21354      1.95620      6.17470         0.047303     -0.066730      0.161582
O	      8.45269      4.15335      6.24131         0.119674      0.039958      0.054398
O	      2.10893      4.20524      4.24647        -0.009295     -0.097496      0.269227
O	      4.03753      6.29125      4.16594         0.436330     -0.036192     -0.003859
O	      4.01479      4.19211      6.28723        -0.265932     -0.028249     -0.097484
O	      6.18047      6.33587      6.41442         0.007315      0.123913      0.036856
O	      6.22325      4.34501      8.31918         0.028854      0.040800      0.026952
O	      8.13160      6.20928      8.40797        -0.107052     -0.013287     -0.111279
O	      1.97694      6.16438      6.26329        -0.023523     -0.022993     -0.023713
O	      4.29026      8.46651      6.23232         0.063836     -0.015905      0.031651
O	      4.23583      6.20275      8.40274         0.087328      0.124964     -0.121846
O	      6.26616      8.23826      8.29854        -0.134549     -0.051708     -0.086350
O	      6.25602      6.32660     10.38087        -0.006422     -0.130497      0.017873
O	      8.15274      8.30826     10.38503         0.081086      0.111064      0.062132
