# total energy = -213.46896873 eV
 
CRYSTAL
PRIMVEC
0.028651 6.248428 6.321649 
6.251250 0.010295 6.339914 
4.168105 4.178373 0.006291 
PRIMCOORD
36 1
Li	      8.28109      8.34467     12.55659        -0.015827      0.029568     -0.025356
Li	      6.39036      8.27738     10.62380        -0.014047      0.017962      0.000149
Li	      6.15664      2.18992      8.32710        -0.022480      0.034321     -0.017756
Li	      8.43588      6.24417      6.46505        -0.009566      0.006082      0.036330
Li	     10.30432      8.41566     10.54836        -0.025693     -0.005800     -0.004550
Li	      8.32046      6.34695     10.50465         0.024531     -0.001802      0.005706
Li	      2.11992      4.19649      6.34517         0.012231     -0.005615     -0.023038
Li	      8.37102      8.21388      8.55737         0.019120     -0.040721      0.047710
Li	      6.37367      6.24620      8.49438         0.000203     -0.000870      0.025329
Ti	      4.32077      8.27088      8.38138         0.358040     -0.047385     -0.028483
Mn	      4.20509      4.15950      4.22575        -0.050075     -0.023026     -0.096136
Mn	      4.14472      6.25935      6.30911         0.030388      0.059589     -0.121490
Fe	      8.23743      4.32651      8.41298         0.136115     -0.251902      0.109993
Fe	      2.06752      2.12514      4.22776         0.031001     -0.030917      0.017053
Co	      8.44548     10.35018     10.56162         0.059826     -0.101700     -0.028072
Cu	      6.28283      4.09331      6.40906         0.007569      0.018043     -0.024271
Ni	      6.27708      0.11086      6.28312         0.007285     -0.060698      0.051667
Ni	      2.11447      6.27209      8.38546        -0.032184     -0.038963      0.050113
O	      2.17863      2.10860      2.23084         0.034641      0.098235     -0.068638
O	      4.16486      4.07232      2.15127        -0.074042     -0.069877      0.141842
O	      4.10627      1.92256      4.13196         0.047146     -0.032405     -0.028904
O	      6.19445      4.22911      4.20154         0.013905     -0.028358      0.023672
O	      6.24260      2.11513      6.33058         0.000334      0.034197     -0.004355
O	      8.31884      4.17784      6.38661         0.045707      0.001948     -0.013240
O	      2.27830      4.10107      4.16836         0.022783      0.068001      0.068587
O	      4.21710      6.31712      4.38878        -0.051600      0.051088      0.047705
O	      4.21930      4.29892      6.20490        -0.087212      0.049028     -0.051185
O	      6.10727      6.19394      6.25020        -0.085898      0.037382      0.052466
O	      6.32252      4.16033      8.37073        -0.186666      0.023157      0.083108
O	      8.33835      6.18980      8.49392         0.039129      0.264681      0.009359
O	      2.19244      6.25163      6.35399         0.147777      0.005590     -0.131886
O	      4.19652      8.23468      6.45296        -0.007532     -0.047616      0.097323
O	      4.17094      6.31490      8.30503         0.104663      0.014925     -0.096623
O	      6.15447      8.37975      8.45878        -0.357050     -0.120382     -0.045258
O	      6.17231      6.24569     10.65954        -0.119879     -0.025413     -0.118661
O	      8.36720      8.54975     10.52254        -0.002640      0.119654      0.059791
