# total energy = -213.63989138 eV
 
CRYSTAL
PRIMVEC
-0.016057 6.320135 6.381425 
6.013466 -0.012550 6.377499 
4.009144 4.210811 -0.008291 
PRIMCOORD
36 1
Li	      4.00593      4.21316      0.02494        -0.008564     -0.003517     -0.001578
Li	      5.93358      4.23766      2.17770         0.054966      0.065988      0.007319
Li	      3.98814      2.17906      2.10968        -0.046838     -0.101339      0.004265
Li	      4.00199      6.30093      2.28235        -0.011015     -0.053092     -0.010949
Li	      5.88455      6.25868      4.28804         0.122306     -0.029769      0.039532
Li	      4.07274      4.36115      4.16480         0.010016     -0.056777     -0.020729
Li	      5.97664      4.15114      6.34159         0.009221      0.004112     -0.034667
Li	      4.02774      8.21099      4.27422         0.013029      0.001913      0.070485
Li	      4.02453      6.32146      6.18363         0.012555      0.023670      0.050867
Ti	      2.08648      4.11766      2.26691         0.143332     -0.096228      0.412295
Mn	      7.98963      4.21668      4.26601        -0.067197      0.146856     -0.253803
Mn	      1.95993      4.27561      6.39228        -0.139368      0.093806     -0.203761
Fe	      2.01436      8.35197      6.41121         0.096594      0.005798     -0.145215
Fe	      5.98739      6.29067      8.45399        -0.232332      0.111996      0.125240
Co	      8.02784      8.42937      8.53995         0.271257     -0.342512     -0.568953
Cu	      5.97971      2.13365      4.22651        -0.129368      0.078577      0.066695
Cu	      4.07062      2.16215      6.33387        -0.003005     -0.024451     -0.002628
Cu	      2.06475      6.27573      4.30297        -0.235690     -0.097256     -0.013160
O	      3.96027      6.27904      4.25528         0.146246      0.001126     -0.024534
O	      3.92133      4.23401      6.62716         0.004001     -0.043309     -0.460258
O	      1.97356      2.23100      1.97550        -0.042019      0.166736      0.046011
O	      3.88147      4.23268      2.10363        -0.137125      0.001433     -0.000389
O	      4.02388      1.90136      4.19378        -0.139947      0.106640      0.016815
O	      6.09787      4.15067      4.24310        -0.015977      0.093803      0.001136
O	      6.03553      2.08668      6.24476        -0.101411      0.010953     -0.017442
O	      8.02000      4.12077      6.24105        -0.018435      0.060195      0.084361
O	      2.00665      4.07692      4.12145         0.042747     -0.030332     -0.394413
O	      6.09593      6.50232      6.46806        -0.059718     -0.031232     -0.046753
O	      5.99803      4.30979      8.45684         0.022734     -0.084095      0.019716
O	      7.98409      6.38299      8.61246         0.125754     -0.827607      0.100306
O	      1.97953      6.30133      6.30774         0.000775     -0.085807      0.087458
O	      4.01847      8.40141      6.38230         0.087405      0.014595     -0.022195
O	      4.00021      6.15571      8.67810         0.092221      1.130500      0.384758
O	      6.09869      8.38949      8.55095        -0.033027     -0.008080      0.060409
O	      5.95441      6.42643     10.51817         0.053843     -0.115558     -0.011245
O	      7.98603      8.58521     10.57436         0.112034     -0.087736      0.655005
