# total energy = -214.13278311 eV
 
CRYSTAL
PRIMVEC
-0.006701 6.220184 6.218825 
6.187051 -0.005223 6.217322 
4.129128 4.150187 -0.007898 
PRIMCOORD
36 1
Li	      2.08172      2.09619      0.06504        -0.008194      0.018846     -0.053389
Li	      2.02295      0.15190      2.03751         0.005352      0.050183      0.019337
Li	      4.09188      8.27465      8.21958        -0.008710     -0.011061      0.054973
Li	      8.18726      4.10212      8.22981        -0.011592      0.006659     -0.024535
Li	      2.01556      2.08252      4.00421         0.060178      0.003650     -0.013176
Li	      6.23437      4.11945      6.26337        -0.006348     -0.011398      0.019222
Li	      4.12420      8.26175      4.14388        -0.009210     -0.003916     -0.020458
Li	      8.27671      6.27036     10.36666        -0.019517      0.046641      0.012958
Li	      8.28514      8.24671      8.32256         0.015723     -0.024363      0.014367
Ti	      3.99327      4.15844      4.04516        -0.171446     -0.111492      0.012599
Mn	      4.09506      6.25034      6.22652        -0.050532      0.027911      0.287077
Mn	      6.23484      6.13300      8.31107         0.177669      0.244428     -0.033902
Fe	      8.19726      4.09337      4.17531        -0.052336      0.117581     -0.119109
Fe	      6.25119      8.30395     10.35122        -0.096418      0.057766     -0.068014
Co	      6.22332      2.17784      8.27817         0.258288     -0.161430     -0.386967
Ni	      4.15194     10.32869      6.25969         0.043863     -0.082353      0.002428
Ni	      8.25567      6.21391      6.22550        -0.043919      0.049752     -0.041858
Ni	      6.18403      8.31070      6.25939         0.024084      0.001976      0.060541
O	      1.85709      2.12494      2.05650        -0.271935      0.010369      0.077761
O	      4.11934      4.24791      2.13578         0.018062      0.422667     -0.033648
O	      4.16190      2.13647      4.15359        -0.040542      0.124770     -0.084314
O	      6.20282      4.08642      4.09626        -0.145289      0.074251     -0.044980
O	      6.15724      2.00668      6.19501         0.030604      0.122462      0.762766
O	      8.32797      4.19623      6.09358        -0.104793     -0.091544      0.151971
O	      2.18329      4.12067      4.18499         0.240464      0.025459     -0.106490
O	      4.14490      6.14321      4.24988        -0.035895     -0.040906     -0.346249
O	      4.13066      4.25238      6.10775         0.119065      0.104967     -0.017988
O	      6.11993      6.22708      6.37166        -0.088750     -0.089710      0.032749
O	      6.17530      4.19241      8.30421        -0.037242     -0.313088      0.050485
O	      8.20523      6.21378      8.23359        -0.069300     -0.034576      0.161078
O	      2.16906      6.18366      6.25990         0.087363      0.103370      0.007803
O	      4.15117      8.19593      6.23008        -0.126315     -0.132424     -0.004339
O	      4.25222      6.19480      8.24068         0.038450     -0.000104     -0.170357
O	      6.18806      8.08669      8.35226         0.007585     -0.284986     -0.088372
O	      6.13432      6.24022     10.27932         0.087764     -0.080051     -0.078357
O	      8.17743      8.37260     10.36694         0.183769     -0.140304      0.008387
