# total energy = -215.72439044 eV
 
CRYSTAL
PRIMVEC
-0.009649 6.273631 6.240404 
6.172438 0.002908 6.227646 
4.121604 4.180419 -0.004606 
PRIMCOORD
36 1
Li	      8.13305      2.16315      6.27131         0.065293     -0.046470      0.069262
Li	      6.12646      4.22191      2.16435        -0.038404      0.007594     -0.117152
Li	      6.18692      2.12971      8.28576         0.031603      0.030278      0.076129
Li	      2.05374      4.14587      2.10903        -0.020523     -0.017013      0.057671
Li	      2.06002      2.02198      4.08158        -0.052672      0.043539      0.039176
Li	      4.16778      4.22302      4.05559        -0.014910      0.026110     -0.035653
Li	      6.25428      4.07901      6.28527        -0.016796      0.062219      0.060066
Li	      4.18820      4.15019      8.35155         0.029531     -0.017373     -0.054554
Li	      6.19307      6.23417      8.32845         0.008452     -0.023834     -0.061090
Ti	      4.18291      6.14112      6.30514         0.112489     -0.049576      0.003193
Mn	      8.21069      6.25140      6.33034        -0.338032      0.098304     -0.012150
Mn	      8.23989      6.30753     10.31590         0.076239     -0.181507      0.120511
Fe	      4.02233      2.17855      2.07086         0.254221     -0.089833     -0.122924
Fe	      6.17473      4.19495     10.23692         0.192119     -0.036127      0.278661
Co	      4.08909      0.01589      4.11252        -0.032325      0.095352      0.042465
Co	      6.14661      8.35582      6.24099         0.349950      0.087022     -0.123234
Cu	      6.20733      2.15066      4.14295        -0.151344     -0.093311     -0.083651
Ni	     10.28107      4.22216      6.26800         0.128013     -0.149465      0.078930
O	      2.22088      2.11204      2.04625        -0.350676     -0.023381      0.036761
O	      4.10675      4.06774      2.04914        -0.041933      0.263236      0.134563
O	      4.15417      1.94321      4.06256         0.154757     -0.066873      0.089790
O	      6.31533      4.07634      4.13317         0.140899      0.091551     -0.004263
O	      5.98726      2.06945      6.30805         0.083883      0.165961     -0.306629
O	      8.23992      4.29576      6.03504        -0.089799     -0.052151     -0.177334
O	      1.99776      4.23347      4.32366        -0.040426     -0.016355     -0.256344
O	      4.13203      6.32276      4.30452        -0.102870     -0.041196      0.112796
O	      4.03436      4.20237      6.27414         0.280737      0.068678     -0.001541
O	      6.15399      6.23782      6.24218        -0.073113     -0.257103      0.033236
O	      6.20476      4.16488      8.41023        -0.031278      0.019670     -0.094967
O	      8.21358      6.28820      8.42887         0.024510     -0.004090      0.032310
O	      2.14581      6.30615      6.09054         0.072369      0.245598     -0.075051
O	      4.18140      8.30123      6.21880        -0.468197     -0.039174     -0.130308
O	      4.09359      6.32890      8.24773        -0.005015     -0.095691     -0.058255
O	      5.97612      8.38628      8.12082         0.040335     -0.084401      0.591526
O	      6.10844      6.31590     10.42663        -0.076221      0.005112     -0.099197
O	      8.24774      8.48038     10.39951        -0.100868      0.074700     -0.042749
