# total energy = -211.21249357 eV
 
CRYSTAL
PRIMVEC
0.020287 6.199428 6.235565 
6.296034 -0.002114 6.258708 
4.185156 4.136001 0.010784 
PRIMCOORD
36 1
Li	      2.10284      2.07868      0.02631        -0.056900     -0.017050      0.017879
Li	      4.28087      8.20202      8.32472         0.058813     -0.046246      0.035909
Li	      6.22559      2.10827      4.18067        -0.031353      0.055327     -0.033475
Li	      4.26973      4.04733      4.23920         0.070960     -0.040209      0.077143
Li	      4.14432      2.10321      6.19590        -0.016046      0.097732      0.031621
Li	      6.25264      4.13911      6.23459        -0.090573     -0.001528     -0.014113
Li	      6.28010      8.19378      6.35063         0.089891     -0.021872      0.044304
Li	      4.30324      6.24887      6.29420         0.037148     -0.083568      0.083191
Li	      6.24274      6.25284      8.24005        -0.040430      0.002903     -0.034244
Ti	      6.29406      0.03732      6.22197         0.039044      0.399467      0.120193
Mn	      8.39009      4.10830      8.31110        -0.009037      0.026834      0.008386
Mn	      6.34146      6.18967      4.25334         0.073780     -0.194356      0.210191
Fe	      2.21657      6.20950      4.22658        -0.063934      0.001316     -0.079211
Fe	      4.09726      4.18665      8.25547         0.132324     -0.096440     -0.177392
Cu	      4.20440      8.27921      4.22990        -0.037368     -0.055439     -0.156152
Ni	      2.14740      6.19075      8.30062        -0.000100      0.004690     -0.044067
Ni	      8.35164      4.15638      4.18231        -0.045954     -0.079576     -0.036217
Ni	      6.29434      2.06768      8.29935         0.025793      0.033043     -0.028343
O	      2.05901      2.14115      2.19092         0.085858     -0.000021      0.021389
O	      4.10672      4.12202      1.99410         0.040092     -0.088690     -0.184762
O	      4.03224      2.03271      4.17652        -0.019717      0.121168     -0.007470
O	      6.28988      4.28544      4.12466        -0.112348      0.142442      0.086710
O	      6.29726      1.95383      6.25624         0.016034     -0.405586     -0.154202
O	      8.44032      4.11417      6.37866         0.150813     -0.013930      0.058430
O	      2.22115      4.10514      4.00980        -0.187706      0.020044      0.070184
O	      4.23073      6.20975      4.16592         0.080596      0.161648      0.073844
O	      4.22663      4.11251      6.49122         0.084809     -0.054756     -0.578869
O	      6.28371      6.21941      6.07452         0.021265      0.009348     -0.205768
O	      6.40899      4.11548      8.42622         0.068544      0.093508      0.061521
O	      8.40888      6.09180      8.45540        -0.019130     -0.002965      0.003821
O	      2.02937      6.21785      6.17716        -0.255420      0.003422     -0.061360
O	      4.18214      8.38562      6.17395        -0.016616      0.066832     -0.021245
O	      4.19940      6.13225      8.36207         0.039208      0.251338     -0.029470
O	      6.38784      8.30203      8.33160        -0.470677     -0.084016      0.072843
O	      6.32343      6.18174     10.49336         0.069681     -0.100595      0.178114
O	      8.34674      8.20978     10.20082         0.288657     -0.104221      0.590688
