# total energy = -211.63850473 eV
 
CRYSTAL
PRIMVEC
-0.031426 6.254022 6.162468 
6.271332 -0.030587 6.161426 
4.163366 4.151076 -0.002836 
PRIMCOORD
36 1
Li	      8.32541      2.06212      6.13768        -0.032809      0.017174     -0.019520
Li	      2.03447      0.00632      1.99926        -0.051496      0.046353     -0.014128
Li	      4.14011      8.36327      8.16183        -0.042691      0.042535     -0.014699
Li	      6.28721      8.26879     10.33202         0.070977     -0.040614      0.080187
Li	      6.26865      2.00710      8.15849         0.022936     -0.027306     -0.009722
Li	      8.34891      4.16904      8.14573         0.010504      0.031796     -0.021450
Li	      8.40524      6.15221      6.19106         0.137384     -0.104925      0.018319
Li	     10.32264      8.35472     10.29727        -0.110669      0.076908      0.043793
Li	      8.29478      6.28341     10.29725        -0.062577      0.096314      0.027495
Ti	      2.10024      2.07793      3.96712         0.029313      0.052156     -1.060979
Mn	      4.17523      4.12565      4.08011         0.025709     -0.080372     -0.285212
Mn	      6.27140      6.21136      8.22701         0.062253      0.029778      0.283399
Fe	     10.42310      4.18233      6.21986        -0.143109      0.100237     -0.015850
Fe	      8.34329      8.24358      8.28432         0.009506      0.010949      0.038770
Cu	      6.21828      8.32539      6.17443        -0.218710      0.143361     -0.065853
Cu	      4.07420      6.32462      6.17274        -0.240784      0.171070     -0.048270
Ni	      8.34269     10.35132     10.27063        -0.146749      0.139376      0.097228
Ni	      6.33693      4.02623      6.19285         0.029745     -0.110427      0.014264
O	      1.96161      6.21577      6.17876         0.217367     -0.219940     -0.046589
O	      2.05729      2.08044      2.17644         0.017552      0.007799      0.974453
O	      4.15040      4.16549      2.15156         0.018949     -0.024189      0.229486
O	      4.06323      2.15789      4.10571        -0.102423     -0.010942      0.020395
O	      6.17501      4.21040      4.13481        -0.032023      0.087278     -0.044874
O	      6.27204      1.95636      6.18892        -0.013398      0.251216     -0.014317
O	      8.42247      4.11583      6.11000        -0.190579      0.025837      0.070822
O	      2.21943      4.05706      4.19002         0.015578     -0.079772     -0.030041
O	      4.24299      6.11024      4.19465         0.120106     -0.004395     -0.006015
O	      4.19972      4.14309      6.08379        -0.031884     -0.243204      0.053645
O	      6.21571      6.18710      6.24076         0.176055      0.009561     -0.080462
O	      6.21525      4.25455      8.19965        -0.007509      0.161527      0.043836
O	      8.17670      6.26862      8.23378        -0.133449     -0.124711     -0.026242
O	      4.18336      8.45798      6.14424         0.197069     -0.154873     -0.006519
O	      4.25914      6.18291      8.16163         0.173228      0.024224     -0.024524
O	      6.29189      8.17241      8.13000         0.060740     -0.139088     -0.010531
O	      6.19071      6.25421     10.15206         0.166970     -0.025047     -0.186600
O	      8.30819      8.35036     10.17264        -0.001082     -0.135645      0.036303
