# total energy = -90.74297953 eV
 
CRYSTAL
PRIMVEC
2.147918 4.258222 2.147578 
2.185812 -4.296006 2.186153 
4.375510 0.000279 -4.375570 
PRIMCOORD
16 1
Li	      2.51477     -0.00184     -2.12827        -0.208331      0.031216     -0.752437
Li	      2.47141     -2.05402      0.00392         0.219831     -0.483706     -0.146306
Li	      4.56770     -0.01979     -0.04398         0.638652     -0.074504      0.191790
Li	      4.52887     -2.05335     -2.05448         0.111298     -0.479816     -0.050939
Mn	      0.38353     -0.00200      0.00439        -6.913540     -0.117416     -0.233899
Mn	      2.41481      2.03141      0.02365         0.134931      2.922818     -1.215418
Ni	      4.60601      2.03186     -2.16760        -1.028753      1.182395      0.290607
Ni	      2.44425     -0.01986      2.08229        -0.205435     -0.176310      2.130968
O	      6.99589     -0.00368     -0.08072         0.182949     -0.362918     -0.784261
O	      4.37351      2.16808     -0.04350        -0.810531     -0.939175      0.277300
O	      4.60759     -0.03549     -2.46947         1.128323     -0.028195      0.899715
O	      4.49907     -0.14726      2.38425         0.095568     -0.898041     -0.707924
O	      4.56919     -2.20819      0.15268         0.102942      0.368083      1.272407
O	      2.24954      2.31077      2.11540         1.225561     -1.214871     -0.931365
O	      2.14246      0.10720      0.02685         3.814380     -0.313115      0.239557
O	      2.41046     -2.35075      2.27691         1.512155      0.583555     -0.479795
