# total energy = -199.09304341 eV
 
CRYSTAL
PRIMVEC
-0.026585 6.200397 6.283482 
6.196624 -0.010360 6.267158 
4.118495 4.110301 0.005792 
PRIMCOORD
36 1
Li	      6.27426     10.21179      8.42983         0.079976     -0.083562      0.044385
Li	      4.16119      8.16374      8.38345         0.149189     -0.158326     -0.025586
Li	      4.07178      6.14156     10.30390        -0.151267      0.167555     -0.116628
Li	      6.21809      8.26945     10.35112        -0.155472      0.073478     -0.039433
Li	      6.20167      4.09090      6.22265        -0.149039     -0.012761     -0.125165
Li	      8.21548      6.23447     10.47098         0.079447     -0.094053      0.012862
Li	      6.14658      8.26769      6.45501         0.052827      0.014323      0.242818
Li	      4.03262      6.25871      6.38924        -0.008409     -0.047180      0.093384
Li	      6.07618      6.22301      8.49149        -0.043817      0.108892     -0.021329
Ti	      0.08021      6.15229      6.21219         0.627920      0.027447      0.098295
V	      8.10623      6.24543      6.25520         0.304214      0.488819     -0.464177
Co	      8.22478      4.12476      8.34471        -0.362781      0.083430      0.041909
Cu	      2.05379      2.04061      4.10824         0.170517     -0.373482      0.147021
Ni	      8.23039      2.07584      6.22361        -0.087057     -0.085292      0.069311
Ni	      6.19628      2.05910      8.35285        -0.147332      0.102015      0.061416
Ni	      4.10254      8.22751      4.21663        -0.520047      0.066748     -0.137138
Ni	      4.12493      4.14183      4.13589         0.132512     -0.128713      0.186521
Ni	      8.17696      8.34402      8.46310         0.679684     -0.691150     -0.290151
O	      4.12258      6.08619      8.33568         0.167925      0.990495     -0.035766
O	      6.31868      8.23266      8.40899        -1.003715     -0.157135      0.010401
O	      2.02459      2.23674      2.04972         0.200000     -0.141345     -0.119399
O	      3.94348      4.14334      2.04158         0.280937     -0.187942     -0.262357
O	      4.10104      2.07629      4.34396        -0.030686     -0.321215      0.231624
O	      6.07210      4.25240      4.15376         0.560554     -0.295590      0.029349
O	      6.10109      1.96806      6.25311        -0.019208     -0.141858     -0.110069
O	      8.27321      4.19485      6.39432        -0.002841     -0.079828      0.138476
O	      2.09138      4.05113      4.01420        -0.503436      0.175469     -0.209091
O	      4.19717      6.18952      4.17445        -0.132054      0.585287      0.124370
O	      4.15361      3.92070      6.32867        -0.046926     -0.114733     -0.186404
O	      6.36014      6.15637      6.23478        -0.341798      0.012636      0.129191
O	      6.22397      4.07636      8.46113         0.162033      0.430020     -0.230949
O	      8.26065      6.10544      8.20209        -0.165028     -0.146014      0.145353
O	      1.92739      6.24660      6.32816        -0.469992     -0.156973     -0.136555
O	      4.06065      8.32943      6.26447         0.132173      0.193412      0.108106
O	      6.17098      6.09874     10.58619         0.067634     -0.008806      0.173804
O	      8.29966      8.21414     10.46744         0.493363     -0.094072      0.421598
