# total energy = -197.72201372 eV
 
CRYSTAL
PRIMVEC
-0.034572 6.208294 6.169092 
6.302032 -0.019085 6.153686 
4.191188 4.118364 -0.002574 
PRIMCOORD
36 1
Li	      6.34103     10.20827      8.26605         0.209019     -0.241902     -0.040311
Li	      8.34494      4.06615      4.10585         0.059613     -0.040818      0.010708
Li	      6.32393      8.28646     10.23530         0.145058     -0.109650     -0.005758
Li	      4.29019      4.08761      4.12426         0.175208     -0.113944      0.220288
Li	      6.29409      4.11819      6.05198        -0.128596     -0.003431     -0.095339
Li	     10.40917      8.29025     10.30084        -0.273714      0.159268      0.172088
Li	      8.29325      6.24863     10.34343        -0.189669      0.258561      0.085844
Li	      6.26110      8.27815      6.19569         0.142414      0.006441      0.176246
Li	      8.25632      8.33177      8.28251        -0.258008      0.128392     -0.036643
Ti	      4.15577      6.22924      2.12380        -0.086257      0.053976     -0.053928
V	      2.08262      4.13981      2.12894        -0.146385      0.139418     -0.346397
Co	      4.17380      2.21816      6.07577         0.191505     -1.088539     -0.203432
Cu	      6.30037      6.06112      4.16606         0.136494     -0.057022      0.251704
Cu	      4.13227      6.15676      6.14258        -0.103154      0.075806     -0.163690
Ni	      6.30713      6.17352     12.24480         0.136938     -0.068648     -0.408001
Ni	      8.36948      8.23485     12.24124         0.016624      0.009857     -0.231908
Ni	      4.24516      8.22799      8.24144         0.187370     -0.114121      0.034345
Ni	      6.22715      6.21448      8.26546        -0.090647      0.122249      0.086182
O	      8.36609      8.26000     10.35711         0.020988     -0.044776     -0.372847
O	      2.01436      2.13833      1.94959        -0.160850      0.866370      0.188787
O	      4.10008      4.18610      1.99831        -0.914356      0.156431      0.348643
O	      4.04934      2.03995      4.13249        -0.106195      0.143738      0.645853
O	      6.29345      4.16943      4.07818        -0.001493     -0.046595     -0.102047
O	      6.27266      2.00840      6.27082        -0.514150      0.235472      0.229562
O	      8.45324      4.18308      6.29804        -0.231450      0.263336      0.615431
O	      2.10868      4.07675      3.90687        -0.018441     -0.107206     -0.748978
O	      4.26133      6.16060      4.04397         0.017555      0.059487     -0.446259
O	      4.17433      4.00920      6.16564        -0.163463      0.429386      0.234672
O	      6.29691      6.18255      6.18713         0.484723      0.045345      0.022182
O	      6.39662      4.03929      8.19653         1.073760     -0.146378      0.123063
O	      8.46839      6.12051      8.18032         0.212669     -0.681493     -0.142462
O	      2.08849      6.24808      6.15414        -0.015921     -0.181520      0.061196
O	      4.09072      8.28050      6.21238         0.192950     -0.122817     -0.180512
O	      4.23245      6.20847      8.07425        -0.180458     -0.146874      0.108289
O	      6.22134      8.16922      8.25216         0.078634      0.274913     -0.026279
O	      6.27029      6.17787     10.25517         0.101684     -0.112711     -0.010290
