# total energy = -200.90035607 eV
 
CRYSTAL
PRIMVEC
0.038220 6.194206 6.352240 
6.209141 0.050273 6.340668 
4.159181 4.140905 0.013901 
PRIMCOORD
36 1
Li	      6.24370      6.19866     12.62245        -0.002466     -0.032568     -0.034773
Li	      6.35061     10.26265      8.50061        -0.006612      0.006320      0.020690
Li	      4.16834      2.06444      2.20806        -0.000344      0.003444     -0.015874
Li	      6.15197      8.28448     10.46240         0.033633      0.019116     -0.109096
Li	      8.28681      4.20843      8.46976         0.045741     -0.014205      0.004971
Li	      2.18994      2.09897      4.24386         0.011488     -0.028396      0.026232
Li	      4.16304      2.09537      6.24397         0.013670     -0.022271     -0.058862
Li	      4.13166      6.25172      6.43878        -0.013388      0.070409      0.096834
Li	      6.23175      6.29332      8.49591        -0.033968      0.053970      0.031649
Ti	      6.24683      4.33349      6.30356         0.135662      0.466930     -0.508540
V	      4.26322      6.07172      2.09260         0.228520     -0.478371     -0.019130
Co	      4.16858      4.18718      8.43065        -0.677596      0.386074      0.250658
Cu	      2.18126      8.22532      6.39001         0.073336     -0.078485      0.043906
Cu	      0.04106      4.15040      4.24916         0.163326      0.034835      0.074881
Cu	      8.27274      6.27847     10.59317        -0.183825      0.024163      0.027517
Ni	      4.13445      0.09595      4.18871        -0.123104     -0.001818      0.023487
Ni	      4.14522      4.06401      4.26712        -0.117323      0.141544     -0.024968
Ni	      6.24818      8.28010      6.41572        -0.208713      0.065026     -0.124148
O	      4.14522      8.26123      6.25917         0.017229     -0.004937      0.252211
O	      6.28077      6.15986     10.56094         0.071794     -0.114737     -0.039778
O	      1.86759      2.10753      2.24462        -0.243899      0.019888      0.006816
O	      4.11669      4.28669      2.16798        -0.004695      0.318807     -0.000321
O	      4.16122      2.08853      4.17861         0.001234      0.122229      0.066268
O	      6.18724      4.14035      4.40104        -0.053350      0.004517      0.492047
O	      6.24954      2.15937      6.57455        -0.039632      0.011197      0.037781
O	      8.18678      4.07791      6.34339        -0.233091      0.049245      0.122076
O	      2.05154      4.24380      4.31645         0.483502     -0.189795      0.033557
O	      4.07573      6.23543      4.07931         0.038441      0.070592      0.055251
O	      4.22825      4.15519      6.44462         0.193884     -0.000179     -0.216595
O	      6.26266      6.16905      6.37887         0.031785     -0.552284      0.031111
O	      6.13159      4.08502      8.43359        -0.136793      0.006173     -0.294858
O	      8.45287      6.38491      8.52485         0.069317      0.060504     -0.139476
O	      2.09901      6.26963      6.23664         0.038812      0.095862      0.085773
O	      4.17645      6.05591      8.51563         0.074367     -0.343689     -0.173969
O	      6.43307      8.29104      8.41087         0.590984     -0.070242      0.072555
O	      8.39165      8.30367     10.36635        -0.237927     -0.098871     -0.095883
