# total energy = -200.95411026 eV
 
CRYSTAL
PRIMVEC
0.056990 6.128202 6.595866 
6.168046 0.046239 6.605014 
4.091288 4.071687 0.052468 
PRIMCOORD
36 1
Li	     10.30216     10.22904     13.24206         0.113126      0.045203     -0.009778
Li	      2.18895      8.07589      6.69258        -0.109828     -0.092894      0.059152
Li	      2.11627      6.15486      8.65212        -0.057144     -0.000583     -0.215656
Li	      4.10156      6.05039      2.29303         0.011079      0.008115     -0.018730
Li	      4.10844      4.06656      4.26122        -0.014725      0.064356      0.013755
Li	      8.20232      6.14972      6.76687         0.016704      0.049052      0.139942
Li	     10.24529      8.26732     11.15580         0.071838     -0.028771      0.090911
Li	      4.13997      6.16042      6.73121        -0.094592     -0.047442     -0.006424
Li	      6.20246      6.18398      8.92858         0.074471     -0.023053     -0.035029
Ti	      6.02992      6.19035      4.51538        -0.553496      0.279096      0.277863
V	      6.24578      3.95757      6.69095        -0.081469     -0.579480     -0.118807
Co	      2.02975      4.21324      6.64147        -0.068843     -1.026203     -0.876788
Cu	      4.17326      8.15489      8.78774        -0.439810      0.025294     -0.134362
Cu	      6.17296      8.16045     10.97846         0.029155      0.174179      0.309169
Cu	      2.11170      4.12195      2.22594        -0.088479      0.046174     -0.170074
Cu	      4.15576      4.12544      8.81014        -0.109821     -0.055304     -0.380257
Ni	      4.19491      6.14180     10.92731        -0.097791     -0.079515      0.290244
Ni	      2.09883      6.10117      4.40865         0.120063     -0.111695      0.368594
O	      4.11807      6.15302      8.89653         0.122599      0.258481     -0.261501
O	      6.13258      8.19813      8.58564         0.072155      0.127872     -0.136572
O	      2.09840      2.15123      2.38535         0.155208     -0.172661      0.131414
O	      3.97314      4.01436      2.20391         0.315497      0.086492      0.067448
O	      4.11013      2.03682      4.25783         0.152441      0.123896     -0.351221
O	      6.12363      4.10718      4.65920        -0.117853      0.077935     -0.050019
O	      6.19237      2.19272      6.68789         0.024536      0.468197     -0.024367
O	      8.04192      4.11291      6.50241         0.126452     -0.011994     -0.174928
O	      2.07682      4.04062      4.59743        -0.068087     -0.066057      0.821097
O	      4.19880      6.13708      4.39227         0.486248      0.062133      0.020505
O	      4.31900      4.11491      6.85016        -0.361347      0.111165      0.043774
O	      6.22621      6.14447      6.43924        -0.052529      0.143564     -0.088177
O	      6.37469      4.18872      8.55214        -0.167024      0.066763      0.264329
O	      8.27652      6.08361      8.95060         0.018054     -0.017308     -0.097610
O	      2.12169      6.04220      6.48646        -0.096006      0.022298      0.253656
O	      4.16674      8.14611      6.79177         0.808453      0.177293      0.084377
O	      6.19699      6.24631     11.03443         0.088043     -0.158101     -0.084565
O	      8.17441      8.18907     10.78630        -0.227279      0.053503     -0.001366
