# total energy = -200.36464711 eV
 
CRYSTAL
PRIMVEC
-0.068380 6.458722 5.930448 
6.577688 -0.059848 5.929182 
4.340852 4.258142 0.005534 
PRIMCOORD
36 1
Li	      6.33910      0.22409      5.95388        -0.009180      0.108628      0.047706
Li	      8.58116      2.33962      5.94215        -0.012577      0.043958     -0.054869
Li	      4.23042      0.16161      3.96929         0.001876      0.091993      0.037429
Li	      6.42425      2.20400      3.94576        -0.052288      0.046887      0.068733
Li	      2.45440      2.06395      3.86943         0.017793     -0.060542     -0.018253
Li	      4.65163      4.07647      3.92177         0.037186      0.011088     -0.038056
Li	      4.63545      2.06502      5.84513        -0.024934     -0.006272     -0.011192
Li	      6.71751      4.17013      5.88164         0.007419     -0.024551     -0.036261
Li	      6.46718      8.40255      5.94201         0.017422     -0.000021     -0.071653
Ti	      8.51795      6.37175     10.02559        -0.180961      0.137566      0.286804
V	      4.44368      6.19155      5.84076         0.049813     -0.032177      0.081405
Co	      4.21161      8.57057      4.04519        -0.008681     -0.067844      0.178211
Cu	      2.15743      6.43521      7.85976        -0.061296     -0.034477     -0.100380
Cu	      4.41858      8.64466      7.87137        -0.175393      0.136791     -0.105329
Cu	      0.07984      2.13022      1.93288        -0.020617      0.037988      0.195999
Cu	      8.68874      4.29758      7.90203         0.077604      0.027675      0.009052
Cu	      6.44289      6.36927      7.95738        -0.021151     -0.106435     -0.008669
Ni	      8.57427      8.46095      7.93558         0.090030     -0.003106      0.018990
O	      8.93518      6.22741      8.02596        -0.052559      0.106214      0.022493
O	      4.04976      6.32792      7.78755         0.130074      0.046105      0.011691
O	      6.56472      8.25554      7.89059        -0.013066     -0.072977      0.027028
O	      2.02667      2.50049      1.98307        -0.021754     -0.092025     -0.039963
O	      4.70282      4.31008      1.93277        -0.095124     -0.193760     -0.024565
O	      4.40261      2.16098      3.79389        -0.022950     -0.036956      0.168242
O	      6.60882      4.27629      3.76281         0.009681     -0.013256      0.192168
O	      6.57831      2.20502      5.98273        -0.007123      0.030754     -0.138352
O	      8.73333      4.33727      6.06719         0.032932      0.003950     -0.170950
O	      1.84521      4.41005      3.87399         0.008654      0.069139      0.095674
O	      4.16590      6.34962      4.05726        -0.105499      0.055318     -0.115066
O	      4.25957      4.40478      5.90932        -0.001701     -0.053708     -0.059637
O	      6.21607      6.28059      5.95290         0.018253      0.056587      0.078653
O	      6.25475      4.42338      8.10224         0.124491      0.083407     -0.102525
O	      2.24815      6.29509      5.94993         0.016122     -0.026427     -0.354057
O	      4.29688      8.23566      5.94371         0.059955     -0.011494     -0.054390
O	      6.65200      6.43687      9.95610         0.281253     -0.101956     -0.062719
O	      8.86084      8.30428      9.94975        -0.093703     -0.156065      0.046607
