# total energy = -200.37235292 eV
 
CRYSTAL
PRIMVEC
-0.081000 6.077160 6.300687 
6.332390 -0.068983 6.290056 
4.196988 4.020943 -0.022420 
PRIMCOORD
36 1
Li	      6.29965      3.97829      2.15194         0.044845     -0.024465     -0.052954
Li	      4.20323      7.99528      8.36634         0.017799     -0.040485     -0.001047
Li	      1.96813      1.99557      4.06803        -0.140587      0.090715      0.001426
Li	      4.13972      4.09432      4.09761        -0.140425      0.105800      0.020468
Li	      6.31071      3.95161      6.21408        -0.037477      0.036582     -0.048600
Li	      0.06429      4.01288      4.18303         0.094884     -0.101840      0.050778
Li	      2.08332      6.00524      4.20768         0.133189     -0.002136      0.041707
Li	      4.26830      5.93677      6.22516         0.063878     -0.036106     -0.095872
Li	      8.32983      8.03784      8.45286        -0.051623      0.001972     -0.028918
Ti	      2.14762      8.03228      6.36677         0.323729     -0.231559      0.059907
V	      4.03945      2.13291      6.19568        -0.044465      0.227172      0.029047
Co	     10.45646      4.01712      6.33691         0.080911     -0.100760     -0.054011
Cu	      4.15932      6.01531     10.44781        -0.014223      0.107686     -0.248297
Cu	      6.28031      8.07184     10.43798        -0.076930     -0.067624     -0.029277
Cu	      4.11680      6.08454      2.18016        -0.128855      0.145690      0.076742
Cu	      2.04551      4.04314      2.23384         0.131072      0.058639      0.122867
Cu	      1.99425      4.06401      6.24470         0.139419     -0.111958     -0.008665
Cu	      6.20975      5.96531      8.37102        -0.139729     -0.093622     -0.079170
O	      4.34600      5.97562      8.45599        -0.130564     -0.045791     -0.182704
O	      6.22778      7.87712      8.16765         0.014832      0.265592      0.035097
O	      6.18417      6.13429     10.74869         0.056063      0.065132      0.146889
O	      8.24255      8.07449     10.65542        -0.065184     -0.270848      0.070232
O	      2.20305      2.09591      1.96667         0.031822     -0.119770     -0.081086
O	      4.02376      4.16223      2.00861         0.043177     -0.265505     -0.005807
O	      4.35870      1.95783      4.37888         0.112951      0.109742     -0.100279
O	      6.45483      3.90990      4.08833        -0.074988     -0.096165      0.057372
O	      6.19768      1.91073      6.56685         0.062097     -0.001027     -0.250448
O	      8.52046      4.02527      6.19400         0.013584     -0.072552      0.397030
O	      2.07890      4.06769      4.35294        -0.087794      0.002000     -0.296623
O	      4.13966      6.05069      4.02463         0.020884      0.041946      0.276927
O	      4.29420      3.85860      6.27378         0.100015      0.065841     -0.007765
O	      6.48181      5.94548      6.06708         0.008990      0.015731     -0.042487
O	      6.39235      3.96740      8.42235         0.092845      0.084004      0.032846
O	      8.12749      5.94196      8.17013         0.088012      0.006441      0.064714
O	      1.83356      6.16843      6.38250        -0.124971      0.161677      0.050136
O	      4.00292      8.17092      6.25548        -0.417184      0.089850      0.079825
