# total energy = -198.83894906 eV
 
CRYSTAL
PRIMVEC
-0.001830 6.215058 6.149099 
6.283317 -0.016211 6.163757 
4.173073 4.137404 0.004683 
PRIMCOORD
36 1
Li	      8.43238      8.26919     12.21382         0.000922     -0.018894      0.026669
Li	      6.28944      4.09546      2.18517        -0.020293      0.102136      0.064155
Li	      6.21178      2.16769      4.16268        -0.031312      0.017142      0.039653
Li	      6.37165      6.10311      4.25965         0.009711     -0.016609      0.075696
Li	      4.14881      4.06974      4.24366        -0.043983     -0.022996     -0.014744
Li	      4.12440      2.03453      5.99891        -0.021380      0.016299      0.035579
Li	      6.23085      4.19410      6.07335         0.001861     -0.025421      0.034780
Li	      2.04713      4.15334      6.06571        -0.004292      0.001416     -0.039012
Li	      4.24319      6.18795      6.08684         0.032857     -0.001889     -0.018423
Ti	      4.03533      4.15197      8.05573         0.099378      0.010851     -0.484211
V	      0.24320      2.01086      2.06798         0.330786     -0.143478      0.056148
Co	      6.24338      6.22306      8.14559         0.019867      0.236769      0.257985
Ni	      0.00330      6.20544      6.14409         0.076923      0.054358     -0.060923
Ni	      8.32763      6.21993     10.28358        -0.037620      0.018224     -0.004756
Ni	      4.23315      8.28635      8.21769        -0.073838     -0.012138     -0.063189
Ni	      8.33023      4.17272      4.16605         0.160254     -0.073597     -0.002311
Ni	      8.37940      4.17987      8.19592        -0.045352     -0.058533     -0.047366
Ni	      4.17880      8.26317      4.16028         0.003940      0.022717      0.014475
O	      2.00647      2.08685      2.08161        -0.161161     -0.062057      0.007639
O	      4.18215      4.27326      2.11091         0.079873      0.078178      0.078171
O	      4.17961      1.99778      4.02322         0.029645      0.149394      0.144118
O	      6.46991      4.12858      4.17081        -0.236172     -0.032248     -0.002344
O	      6.24706      1.92448      6.41259         0.003176      0.141359     -0.044220
O	      8.55584      4.10917      6.18650        -0.109802     -0.026207      0.004480
O	      2.00354      4.33024      4.03595         0.110525     -0.151707      0.097777
O	      4.14825      6.21513      3.94556         0.024831     -0.105833     -0.070310
O	      4.18235      4.11430      6.25265        -0.028776      0.016984      0.477975
O	      6.27405      6.18800      6.34923        -0.017546      0.003803     -0.055977
O	      6.23331      3.91810      8.18565        -0.136436      0.349749     -0.112604
O	      8.30788      6.24612      8.34121        -0.463728      0.223811     -0.287670
O	      1.91674      6.24813      5.98602         0.129996      0.009241      0.252213
O	      4.17045      8.44466      6.20847        -0.006910     -0.130575      0.010485
O	      4.25335      6.12507      8.20912         0.315540     -0.130410     -0.130860
O	      6.33416      8.29564      8.20736         0.077708     -0.596453     -0.054400
O	      6.13801      6.16471     10.11061         0.067126      0.061536     -0.128065
O	      8.41835      8.18512     10.16916        -0.136316      0.095079     -0.056613
