# total energy = -201.49593940 eV
 
CRYSTAL
PRIMVEC
0.013806 6.149964 6.132152 
6.276475 -0.027936 6.173829 
4.187532 4.130538 -0.022028 
PRIMCOORD
36 1
Li	      2.09583      6.08990      8.08345         0.000846     -0.043524      0.077676
Li	      4.29174      8.25854      8.05438         0.066175     -0.026800     -0.001972
Li	      6.24010      8.18233     10.13813        -0.028824     -0.021585     -0.049936
Li	      4.22215      6.13140      2.00382        -0.104452      0.022519      0.040560
Li	      2.15551      1.99377      4.10405        -0.022558     -0.025398      0.087654
Li	      6.35428      8.25274      6.23166         0.074392     -0.118341      0.025677
Li	      4.13362      6.16601      6.24855         0.053852     -0.030641      0.003928
Li	      8.21406      8.21501      8.07819        -0.042568     -0.052079     -0.018226
Li	      6.28012      6.21973      8.17147         0.054340      0.035279      0.017357
Ti	      4.11020      6.15725     10.06042        -0.129529      0.060154     -0.545669
V	      4.34902      8.11022      4.09705         0.124488     -0.056861     -0.092439
Co	      8.35019      6.15732      6.19352        -0.154170      0.199905      0.096027
Co	      8.30631      6.20346     10.21887         0.109206     -0.020972      0.120489
Cu	      2.08536      2.07898      0.04127         0.019550      0.059241     -0.070785
Ni	      0.02857      0.04833      0.05080        -0.038449      0.035309      0.023751
Ni	      2.12475      4.08399      2.03815        -0.047309      0.326887      0.083943
Ni	      4.26187      4.05580      4.07897        -0.003759      0.069971      0.014638
Ni	      6.24986      4.09397      6.21408        -0.072312      0.049253      0.045442
O	      6.27463      8.21453      8.16844        -0.021778      0.087501      0.019111
O	      2.10480      2.19522      1.94030        -0.019019     -0.387970     -0.247392
O	      4.03654      4.10069      2.07969         0.169362     -0.020182      0.002546
O	      4.18549      1.95864      4.28221        -0.021877     -0.127076      0.111625
O	      6.36592      4.08956      4.10889         0.222942      0.031013     -0.091116
O	      6.02708      2.05651      6.19200         0.037413     -0.022948     -0.050082
O	      8.35198      4.14745      6.12883         0.032508     -0.272083     -0.088396
O	      2.01079      4.08050      4.09444         0.007818      0.063298      0.095974
O	      4.15029      6.29056      4.11756        -0.137269      0.034232      0.013082
O	      4.24435      3.96614      6.10340        -0.124229      0.041210      0.061662
O	      6.48669      6.08366      6.20453         0.040869      0.082404     -0.112469
O	      6.40376      4.06696      8.38065        -0.085411     -0.013539      0.052322
O	      8.37810      6.00758      8.16247         0.011427      0.018545      0.060717
O	      2.04320      6.29737      6.05540         0.081737      0.103297     -0.381221
O	      4.31053      8.27087      5.90772        -0.007070     -0.064333      0.129986
O	      4.17994      6.17114      8.26759        -0.032336     -0.000730      0.457385
O	      6.22072      6.01317     10.27867         0.039443      0.029043     -0.046646
O	      8.52687      8.30797     10.30498        -0.053450     -0.044000      0.154798
