# total energy = -90.18212997 eV
 
CRYSTAL
PRIMVEC
2.158195 4.278596 2.157853 
2.196270 -4.316561 2.196613 
4.396446 0.000280 -4.396506 
PRIMCOORD
16 1
Li	      2.55973     -0.00203     -2.12785        -0.229929      0.032904     -0.811536
Li	      2.50544     -2.05325      0.01427         0.237143     -0.534741     -0.159173
Li	      4.61151     -0.01998     -0.04441         0.698359     -0.076394      0.208997
Li	      4.58264     -2.05257     -2.06387         0.119434     -0.504522     -0.065845
Mn	      0.42908     -0.00221      0.00423        -7.849949     -0.168196     -0.254120
Mn	      2.44848      2.03024      0.03438         0.175780      3.179274     -1.270713
Ni	      4.66069      2.03070     -2.17788        -1.101981      1.247792      0.300132
Ni	      2.48873     -0.02005      2.08124        -0.195764     -0.187700      2.310953
O	      7.06299     -0.00372     -0.08149         0.130575     -0.372662     -0.838266
O	      4.41547      2.18888     -0.04392        -0.814160     -1.014452      0.276528
O	      4.65179     -0.03583     -2.49316         1.226632     -0.017900      0.995642
O	      4.54223     -0.14867      2.40712         0.087312     -0.907355     -0.771146
O	      4.61302     -2.22937      0.15414         0.099598      0.388612      1.290458
O	      2.27112      2.33293      2.13570         1.332118     -1.308701     -0.972807
O	      2.16301      0.10823      0.02711         4.494569     -0.382046      0.274462
O	      2.43358     -2.37330      2.29875         1.590262      0.626087     -0.513567
