# total energy = -202.49871387 eV
 
CRYSTAL
PRIMVEC
-0.068584 6.021542 6.245372 
6.295983 -0.071016 6.250207 
4.172384 3.993469 -0.023636 
PRIMCOORD
36 1
Li	      6.11779      9.95365      8.18121         0.106175      0.006669      0.095323
Li	      2.08094      4.00425      2.19978        -0.152894      0.018711      0.094380
Li	      3.98587      3.99077      4.30275        -0.082007     -0.020495      0.201252
Li	      6.11385      4.02635      6.31186        -0.150236      0.083401     -0.022531
Li	      0.11093      3.98048      4.22916        -0.049369      0.038973     -0.038092
Li	      2.03876      5.87592      4.22280         0.016754      0.018269     -0.079763
Li	      2.14867      3.99186      6.19151         0.168220     -0.087614     -0.057999
Li	      4.10656      5.91809      6.13628         0.118418     -0.163305     -0.042436
Li	      4.09487      3.93811      8.15875         0.037296      0.045758     -0.081077
Ti	     10.34296      6.00605      8.45330        -0.396482      0.626406      0.582984
V	      8.21455      9.86265     10.27775         0.240968     -0.111368     -0.086578
Co	      6.25505      5.96087     12.45418         0.322655     -0.246930      0.256097
Co	      6.24201      7.96777     10.39611         0.164232      0.620007     -0.494550
Cu	      2.10903      1.97799      0.09571        -0.055448      0.206831     -0.157770
Cu	      6.16175      6.04357      4.21599         0.317333     -0.382421     -0.099437
Ni	      4.21376      2.05908      2.07145        -0.102470     -0.161932      0.155091
Ni	      4.15511      2.01164      6.22685        -0.218212      0.090132      0.098336
Ni	      6.32517      5.92010      8.27883         0.074221     -0.154491     -0.007336
O	      2.04775      2.00258      2.15633        -0.095319     -0.070956      0.411872
O	      4.16368      4.08589      1.84969        -0.098072      0.069360      0.050382
O	      4.42278      1.86690      4.16963        -0.462769      0.155707     -0.181229
O	      6.48221      3.99233      4.16496         0.060907      0.809155      0.059809
O	      6.35339      1.88267      6.13585         0.159463     -0.101646      0.511667
O	      8.53714      3.98406      6.02967         0.011612     -0.325298      0.030189
O	      2.05240      3.90000      4.18887        -0.034567      0.081906     -0.049769
O	      4.02945      5.95908      4.03584        -0.069199     -0.009931     -0.418319
O	      4.17636      3.90751      6.22358         0.037591      0.713065     -0.003764
O	      6.32692      5.97036      6.19599        -0.285680     -0.069994     -0.205618
O	      6.28730      3.87925      8.30735         0.013053     -0.379562     -0.025015
O	      8.41587      5.93683      8.23304         0.383092     -0.130074      0.344182
O	      1.86680      6.07778      6.22317        -0.027183     -0.213758     -0.070852
O	      3.98963      8.11132      6.29674         0.147460      0.156723     -0.164562
O	      4.21013      5.98917      8.51611        -0.010781      0.007266     -0.117321
O	      6.18849      7.93218      8.49883         0.005609      0.312066     -0.315356
O	      6.13737      6.05223     10.45693        -0.237170     -1.525791     -0.011294
O	      8.24002      8.06836     10.41509         0.142800      0.095160     -0.160896
