# total energy = -202.82881593 eV
 
CRYSTAL
PRIMVEC
0.012920 6.151073 6.320394 
6.041297 0.011247 6.321032 
4.047778 4.122397 -0.013514 
PRIMCOORD
36 1
Li	      6.06377      0.12132      6.32329        -0.013638      0.008639     -0.005132
Li	      4.11930      8.18521      8.45158        -0.059356      0.049408      0.050729
Li	      6.01267      2.14319      4.29527        -0.014083      0.012614      0.043803
Li	      6.02312      2.01696      8.26467        -0.031272     -0.011581      0.019460
Li	      6.07481      6.17784      4.24451        -0.005576      0.013284     -0.030401
Li	      4.16416      2.12314      6.24932         0.038815      0.049173     -0.005428
Li	      6.01362      4.07468      6.24022        -0.011325      0.056090     -0.022674
Li	      4.08280      8.20548      4.27059         0.048608     -0.015216      0.000255
Li	      6.05316      8.17074      6.39949        -0.014150     -0.014649      0.005429
Ti	      8.04647      3.99598      8.28598         0.098007     -0.127516      0.003407
V	      8.06903      6.21965     10.53159         0.067154     -0.193900     -0.071891
Co	      4.05173      4.07978      4.16382        -0.105774     -0.035700     -0.094099
Co	      6.03427      6.21135      8.43995         0.139198     -0.051459      0.041925
Cu	      8.08095      4.19609      4.33777        -0.083851      0.168650      0.061673
Cu	      4.04711      6.14865      6.30142        -0.037068     -0.113356     -0.031984
Cu	      4.07937      4.11722      8.41526         0.115095     -0.071615      0.019546
Ni	      2.01902      2.04725      0.00621         0.014473      0.046381     -0.007482
Ni	      6.02955      4.10007      2.10111        -0.083748      0.056179     -0.001885
O	      3.96464      8.02083      6.35741         0.167417      0.017678      0.024049
O	      1.97918      2.11126      2.01596        -0.003211      0.238258      0.080987
O	      3.96847      4.06085      2.16240        -0.161984      0.040393     -0.072632
O	      3.99761      2.24280      4.29030         0.015678     -0.080679     -0.077753
O	      5.90817      4.19555      4.09985         0.109295      0.001082      0.144031
O	      6.18050      2.07042      6.30915        -0.189475      0.016369     -0.006152
O	      8.11887      4.16239      6.34584         0.025502      0.059846      0.106759
O	      2.10345      4.15815      4.01708        -0.065814     -0.047172     -0.068230
O	      3.87855      6.03365      4.00639         0.053165      0.094188      0.034672
O	      4.03950      4.25985      6.06740         0.030561     -0.036667      0.062815
O	      5.87592      6.19515      6.55065         0.108372     -0.017389      0.045274
O	      6.08938      4.25319      8.43012        -0.016510      0.044118      0.024940
O	      7.96706      6.18510      8.44536        -0.057816     -0.089947     -0.085833
O	      2.10774      6.11126      6.23412        -0.038535     -0.110650      0.080822
O	      4.10383      6.10826      8.74673         0.092065      0.068479     -0.123276
O	      6.19915      8.16601      8.42710        -0.084673     -0.120376      0.047146
O	      6.20423      6.12982     10.44705        -0.070592     -0.025493     -0.083319
O	      8.12410      8.09603     10.70095         0.025042      0.122536     -0.109552
