# total energy = -203.03994758 eV
 
CRYSTAL
PRIMVEC
0.036257 6.231795 6.179164 
6.211978 0.001702 6.213537 
4.151428 4.187738 -0.008832 
PRIMCOORD
36 1
Li	      2.18960      8.29099      6.14239        -0.007658     -0.035774      0.028916
Li	      6.28699     10.34951      8.29496         0.019974      0.011093      0.047696
Li	      2.09266      4.16430      2.10915         0.010398     -0.039586      0.013144
Li	      6.22240      6.24682      4.11678         0.006942     -0.081811     -0.012040
Li	      4.11494      4.15819      4.12447         0.038963     -0.097979      0.022526
Li	      6.23877      4.15388      6.16737        -0.019392     -0.004636     -0.046486
Li	      2.04221      4.23219      6.13547         0.028526      0.030403     -0.039971
Li	      4.13185      6.26321      6.18343        -0.037103     -0.002481      0.016996
Li	      6.16150      6.26099      8.30448        -0.029626      0.047220      0.011573
Ti	      0.19188      2.05579      2.08487         0.387232     -0.011906      0.037145
V	      8.12609      6.33822      6.25489         0.076301      0.122866     -0.237775
Co	      4.20131      8.32441      8.19057        -0.012463     -0.003637     -0.007170
Co	      6.22864      2.14579      4.17137        -0.087983      0.084052      0.045711
Cu	      0.07966      6.22978      6.18060         0.064607      0.068444      0.142512
Cu	      8.25837      4.19643      4.10769         0.033220      0.098353     -0.027138
Cu	      4.23042      8.28677      4.14752        -0.061397     -0.194601     -0.030892
Cu	      2.09491      6.20308      4.16049         0.059402      0.220169     -0.115026
Ni	      4.11433      4.22111      8.24190        -0.027957     -0.050748     -0.092997
O	      4.17411      8.42632      6.10333         0.044056     -0.132782      0.183618
O	      6.31668      6.45270     10.39199        -0.268578     -0.049123     -0.150633
O	      2.02963      2.10442      2.07940        -0.009884     -0.018989     -0.029063
O	      4.15519      4.22918      1.96108         0.010184     -0.200998      0.147928
O	      4.28382      2.06181      4.26254         0.071718      0.212961      0.066442
O	      6.29453      4.02840      4.17555        -0.002216      0.026167      0.015482
O	      6.15919      2.06225      6.22994         0.050760      0.107621      0.025184
O	      8.38067      4.37468      6.09492        -0.044268     -0.067003     -0.041794
O	      2.01481      4.27814      4.10075        -0.072327     -0.116117     -0.001820
O	      4.07989      6.11657      3.98980         0.213098      0.096602     -0.159700
O	      4.16786      3.95486      6.18989        -0.050453      0.059099     -0.014220
O	      6.39681      6.23028      6.15562        -0.228601     -0.009479      0.011285
O	      6.16242      4.00641      8.33200         0.103850     -0.092957     -0.092697
O	      8.34654      6.24924      8.08583         0.043836     -0.109844      0.062091
O	      2.05988      6.25045      6.10585         0.088674      0.029114      0.110627
O	      4.17789      6.27403      8.33486         0.080716      0.412854      0.023707
O	      6.22757      8.33182      8.44357        -0.519719     -0.050904     -0.002036
O	      8.23596      8.34975     10.28845         0.047166     -0.255663      0.088876
