# total energy = -202.51050954 eV
 
CRYSTAL
PRIMVEC
0.017594 6.176940 6.220341 
6.105727 0.031558 6.206318 
4.091551 4.129690 -0.000041 
PRIMCOORD
36 1
Li	      6.18407      6.27913     12.34159        -0.020408     -0.012859     -0.018449
Li	      6.11092      2.06579      4.18097        -0.006155     -0.000488     -0.044170
Li	      6.04225      2.18165      8.22402        -0.013513      0.024436      0.005796
Li	      6.16247      6.22102      4.21158        -0.003943      0.034880      0.016643
Li	      8.08698      6.25852     10.38474        -0.053798      0.027911      0.038431
Li	      2.05490      4.14524      6.19427        -0.011153      0.020657      0.030268
Li	      4.05537      6.16477      6.21527        -0.038825      0.002558      0.056738
Li	      8.18951      8.17361      8.30490        -0.016228     -0.054518      0.033793
Li	      6.22198      6.13663      8.26635        -0.027371     -0.003802      0.013014
Ti	      4.03181      4.32997      4.21101        -0.100464      0.336703      0.108499
V	      4.20758      8.17355      8.19143         0.183810     -0.029637     -0.016075
Co	      4.10497      6.18528     10.35931         0.040699     -0.052057     -0.062577
Co	      6.12398      4.15831     10.32530        -0.052701      0.099978      0.025608
Ni	      8.10999      8.23419     12.39156         0.009583      0.021072     -0.059814
Ni	      2.00691      0.06469      2.03063         0.005644     -0.069779      0.077691
Ni	      8.13135      4.18306      8.28677         0.043586     -0.041549     -0.013914
Ni	      8.17239      6.18962      6.24001         0.046538      0.036418     -0.117791
Ni	      6.11194      4.16492      6.21585        -0.052937      0.037270      0.082672
O	      2.19148      2.12897      2.02243         0.007112     -0.015259      0.135443
O	      4.05486      3.96416      2.18969        -0.007709      0.040855      0.063623
O	      4.08997      2.00256      4.04625        -0.008429     -0.006949     -0.004516
O	      6.08573      4.14404      4.07447        -0.052128      0.023993      0.053774
O	      6.03114      2.16088      6.20397         0.072677     -0.108501     -0.014585
O	      8.12599      4.11581      6.07002         0.116351     -0.009071     -0.052538
O	      2.06839      4.16453      4.14760         0.132635     -0.008047      0.095675
O	      4.09308      6.17512      4.15439        -0.005960     -0.301053      0.013465
O	      4.09169      4.11720      6.10008        -0.097463      0.111695     -0.192643
O	      6.27614      6.12365      6.23346        -0.184515      0.105806     -0.028426
O	      6.17487      4.12097      8.44040        -0.126809     -0.046123     -0.172162
O	      8.18077      6.13287      8.17658         0.040600      0.118211      0.136356
O	      2.02548      6.25457      6.30729         0.010385     -0.159497     -0.177176
O	      4.10637      8.19718      6.35904         0.070171      0.008317      0.051413
O	      4.07192      6.33120      8.41393         0.098187     -0.036844     -0.010492
O	      5.99114      8.29775      8.27977        -0.067640     -0.074353      0.031107
O	      5.99523      6.03724     10.36641         0.027272     -0.046105      0.008275
O	      8.30153      8.38580     10.35709         0.042900      0.025728     -0.092956
