# total energy = -206.10970852 eV
 
CRYSTAL
PRIMVEC
-0.000153 6.134707 6.294251 
6.184646 0.006059 6.287996 
4.114046 4.076760 0.012922 
PRIMCOORD
36 1
Li	      4.21412      8.22530      8.30099         0.121915     -0.107241     -0.074119
Li	      6.21478      8.14664     10.34419         0.037626      0.030747     -0.116526
Li	      1.99711      4.06220      2.27028         0.134165     -0.051472      0.030416
Li	      1.99709      2.14012      4.17621         0.044624     -0.021977      0.033929
Li	      2.11109      6.02265      4.14900        -0.087795     -0.027290      0.200500
Li	      6.11777      8.20092      6.29574        -0.005946      0.113610     -0.007616
Li	      4.15770      6.13883      6.20998        -0.063792      0.023840      0.038364
Li	      8.20731      8.13694      8.41409        -0.155043      0.154376      0.021969
Li	      6.23016      6.21208      8.42482        -0.116897      0.227933      0.072586
Ti	      8.11486      6.21311      6.39388        -0.610247      0.242610     -0.234818
V	      4.08281      6.16007     10.36716         0.115027     -0.105906     -0.286626
Co	      4.10956      4.07207      0.02442        -0.079358     -0.225333     -0.372694
Co	      8.22838      2.04716      6.29682         0.136622     -0.229139     -0.066324
Co	      4.11668      6.09155      2.10214         0.124083      0.205253      0.217932
Cu	      2.04197      6.09567      8.32375         0.755714     -0.278324     -0.023416
Ni	      6.17992      4.09113      6.40049         0.104863      0.117981     -0.305813
Ni	      0.07077      4.05194      4.17791        -0.093160      0.172405      0.281967
Ni	      4.01929      4.10590      4.17870         0.282106     -0.340377     -0.027485
O	      6.18601      8.34278      8.35976         0.023858     -0.788151      0.127956
O	      1.95825      1.86371      1.94582        -0.441211      0.627579     -0.104363
O	      4.12973      4.12924      1.97432        -0.517355      0.764564      0.160833
O	      4.16342      1.91153      4.34161        -0.025517      0.204288      0.228199
O	      6.36121      4.08581      4.34043        -0.184361      0.066381      0.163425
O	      6.23146      1.97503      6.41137        -0.094024     -0.024819      0.207017
O	      8.32626      4.05538      6.24931        -0.072147      0.137938      0.180716
O	      2.07297      4.06983      4.21458        -0.146262     -0.098414     -0.095456
O	      4.13081      6.07690      4.02760         0.024487      0.087971     -0.459326
O	      4.17159      4.00964      6.22274        -0.047335     -0.371216      0.189283
O	      6.27419      6.10694      6.39716         0.528136      0.079739      0.046398
O	      6.19772      3.93605      8.39057         0.002615     -0.743046      0.029152
O	      8.33668      6.12294      8.28206         0.129263     -0.091778     -0.071016
O	      1.89836      6.26797      6.24944         0.101869      0.230968     -0.353288
O	      3.95899      8.27363      6.28206        -0.136521      0.004177      0.026853
O	      4.17342      6.14725      8.60646         0.113246      0.029103      0.276483
O	      6.02637      6.14292     10.64415         0.088345      0.045078      0.009188
O	      8.25248      8.34456     10.64768         0.008407     -0.062056      0.055721
