# total energy = -205.97700576 eV
 
CRYSTAL
PRIMVEC
0.029395 6.125959 6.550038 
6.059907 0.036918 6.541547 
4.039195 4.078059 0.024617 
PRIMCOORD
36 1
Li	      6.12855      6.15899     12.99106        -0.033769      0.013101     -0.051557
Li	      4.10599      8.14088      8.65378        -0.010691     -0.010893      0.100082
Li	      6.08255      2.05630      4.44409        -0.002648      0.005300     -0.010195
Li	      6.05192      2.13498      8.59942        -0.008964     -0.030103      0.041042
Li	      6.12044      6.15863      4.55212        -0.024678     -0.031627      0.065156
Li	      6.06485      4.09167      6.72508        -0.007434      0.040674      0.058920
Li	      8.01194      6.22870     10.95052        -0.009567      0.023891     -0.077422
Li	      8.04554      8.12439      8.82763         0.023379     -0.005043      0.039125
Li	      6.12716      6.19043      8.70772        -0.007035     -0.010217      0.017400
Ti	      4.21258      6.19139     10.85167         0.212683      0.086498     -0.212172
V	      4.05721      4.25426      4.29259         0.085650     -0.106938     -0.037344
Co	      8.04260      2.10464      6.54635        -0.087841      0.198189      0.077259
Co	      8.01618      4.08488      8.72848         0.014758     -0.020716     -0.042414
Co	      4.16258      2.01163      6.60602         0.182721      0.002075     -0.009957
Cu	      6.05971      8.19213      6.63164        -0.086255     -0.010843     -0.120889
Cu	      4.11267      6.14382      6.67402         0.186557      0.009422     -0.055495
Ni	      1.99935      0.01848      2.15382        -0.048130      0.064935      0.104398
Ni	      6.09436      4.08330     10.85141         0.026969     -0.044095     -0.031590
O	      6.08034      8.24011      8.56978        -0.006304     -0.133040      0.107524
O	      2.01417      2.12168      1.90342         0.053249      0.164021     -0.000926
O	      3.93105      4.00899      2.45147        -0.180751     -0.019236     -0.074567
O	      4.03199      2.01928      4.50323         0.008754     -0.089246      0.044557
O	      5.88181      4.09017      4.31078         0.026892      0.038453      0.001082
O	      6.03254      2.05045      6.54002        -0.153445     -0.034048     -0.009483
O	      8.03469      4.06183      6.41766        -0.022330     -0.106708     -0.040914
O	      2.14412      4.07613      4.44849         0.027290      0.023162      0.007918
O	      4.04922      6.00739      4.28461        -0.017858     -0.049941      0.008818
O	      4.01518      4.12105      6.33322         0.149603      0.095432      0.037472
O	      6.12086      6.23140      6.58893        -0.070422     -0.219137     -0.002882
O	      6.17311      4.08932      8.81211         0.093832      0.008373     -0.088888
O	      8.12209      5.97210      8.61068        -0.050032     -0.047260     -0.046776
O	      2.12346      6.21181      6.65863         0.067435      0.117923     -0.179860
O	      4.01779      8.10155      6.42749        -0.062449     -0.063531      0.066582
O	      4.02213      6.13748      8.99586         0.135255     -0.016259      0.360356
O	      6.04810      6.14583     10.91882        -0.311530      0.114548      0.004948
O	      8.09502      8.27446     11.11673        -0.092891      0.042884     -0.049310
