# total energy = -205.58207136 eV
 
CRYSTAL
PRIMVEC
-0.009961 6.254433 6.121479 
6.323706 -0.021814 6.133275 
4.196849 4.158566 0.004470 
PRIMCOORD
36 1
Li	      4.31200      8.28444      8.23989         0.061923     -0.075248      0.025488
Li	      6.34606      8.36814     10.10271        -0.002697     -0.038932      0.039418
Li	      2.17241      2.08493      4.12506         0.011283     -0.008531      0.066557
Li	      4.15673      4.11551      4.07038        -0.037383      0.016221      0.054911
Li	      6.24716      4.20504      6.05064        -0.095413      0.057033      0.014229
Li	      6.33488      4.18718     10.21771        -0.028932     -0.032276     -0.030797
Li	      8.36638      6.18750     10.18695         0.009057     -0.011959     -0.034020
Li	      8.28928      8.35553      8.19515         0.011540      0.056677     -0.052118
Li	      6.25565      6.33233      8.20706        -0.078707      0.032833     -0.011285
Ti	      6.30757      6.17553     12.17129         0.147068     -0.109409     -0.566172
V	     10.49114      6.34249      8.32123        -0.392537      0.098657      0.328139
Co	      8.39145      2.07026      6.11510         0.033422     -0.203272     -0.199592
Co	      4.12609      2.19955      6.02325        -0.144375      0.093007     -0.067883
Co	      4.28099      6.20299      6.13260         0.121425     -0.075906     -0.125306
Cu	      6.30962     10.35526      8.21078         0.126590      0.046032      0.000894
Cu	      8.36212     10.35507     10.14887         0.214484      0.095026      0.120301
Cu	      2.12384      4.14772      2.18712        -0.041670     -0.070865     -0.363061
Ni	      2.13576      4.13430      6.08938         0.015425     -0.073780      0.120843
O	      4.13278      6.24126      8.12602        -0.024115      0.068935     -0.009129
O	      6.27931      8.39960      8.09186        -0.003049      0.021485      0.082998
O	      1.92603      2.04589      1.93784         0.279097      0.023297      0.021807
O	      4.31783      4.26253      2.00165        -0.165609     -0.004924      0.048390
O	      4.23850      1.93283      4.24098         0.012024      0.000775      0.016328
O	      6.42762      4.15395      4.01048        -0.108200      0.016056      0.257956
O	      6.40434      1.96072      6.22965         0.048162     -0.084062      0.049385
O	      8.52993      4.04428      6.29737        -0.089338     -0.047452      0.092152
O	      2.08447      4.17367      4.07676        -0.078252      0.023262     -0.177889
O	      4.19754      6.22796      3.95874        -0.020085      0.005091     -0.306182
O	      4.17679      4.14826      6.08671         0.166377     -0.014871     -0.000466
O	      6.33737      6.26752      6.19692         0.044564     -0.145166     -0.028677
O	      6.26810      3.92842      8.15440         0.098716     -0.008733     -0.001248
O	      8.62927      6.14811      8.03491         0.110649      0.016959      0.108484
O	      2.03045      6.35542      6.11831        -0.177472      0.161806     -0.128058
O	      4.07242      8.38733      6.15350        -0.063727      0.247262      0.017940
O	      6.25538      6.24599     10.30538         0.036479     -0.037045      0.471330
O	      8.40250      8.39979     10.35668         0.003275     -0.037982      0.164335
