# total energy = -205.15659341 eV
 
CRYSTAL
PRIMVEC
-0.125217 6.105573 6.042604 
6.651807 -0.085871 6.010436 
4.412184 4.026626 -0.035165 
PRIMCOORD
36 1
Li	      4.42612      6.00598     10.10408        -0.075906     -0.023049      0.017089
Li	      6.59602      1.90593      4.04301        -0.002954      0.098344     -0.056049
Li	      6.46666      6.09479      4.06326         0.024907      0.005790     -0.085613
Li	      4.36001      4.13222      4.13945        -0.007206     -0.031441     -0.063804
Li	      8.58643      6.05701      5.97983         0.012793      0.007319     -0.036484
Li	      6.39546      4.16552      5.92743         0.017885     -0.007421     -0.040355
Li	      8.77095      5.96798      9.91898         0.046957     -0.070209      0.095086
Li	      4.62720      6.03777      5.94416        -0.039788     -0.014384      0.064163
Li	      6.79664      5.99911      7.90295        -0.051892      0.063884      0.083958
Ti	      8.65134      7.98996     11.87956        -0.054377      0.283469     -0.204150
V	      4.41865      1.80910      2.19533        -0.018679     -0.186028      0.005736
Co	      4.27507     10.06077      5.99980        -0.125428      0.150937     -0.627981
Co	      6.50438      3.99233      2.15040         0.233598     -0.097865      0.089131
Co	      2.24359      4.15035      2.05116         0.019576     -0.078755     -0.296388
Cu	      6.50987      2.06171      8.02717        -0.089366     -0.087997     -0.003505
Cu	     -0.00018      4.08809      4.01884         0.017711     -0.091075     -0.157590
Cu	      2.33460      4.00630      5.97906        -0.071945      0.249361     -0.173140
Cu	      8.74598      8.01051      8.00498         0.030034      0.280662      0.120067
O	      8.82769      6.06956      7.96124        -0.001093     -0.229674     -0.034434
O	      6.54891      5.87018     10.14916        -0.063062      0.128514      0.000084
O	      2.49518      1.94026      1.87445        -0.098718      0.200099      0.065895
O	      4.34365      3.87756      1.89061         0.026643     -0.178914      0.194674
O	      4.40553      1.93451      3.90006         0.037667     -0.094407      0.236397
O	      6.46539      4.00089      3.91118        -0.031959     -0.006835     -0.125910
O	      6.84777      1.82331      6.10576        -0.092346     -0.056071     -0.070387
O	      9.05232      3.83867      6.06292        -1.066917     -0.305162      0.055904
O	      2.36062      4.07791      3.85733         0.180994      0.056736      0.411696
O	      4.38212      6.25701      3.88608         0.013055      0.043808      0.127865
O	      4.34596      4.07724      6.13196         0.199551      0.043060     -0.009296
O	      6.60312      6.15194      5.97326        -0.077436     -0.131756      0.031924
O	      6.99075      4.02260      8.11123         0.046013      0.133763      0.061179
O	      1.84464      6.04377      6.14824         1.042232      0.049721      0.130624
O	      4.09264      8.11784      5.93994         0.026707     -0.125916     -0.003730
O	      4.12511      6.11126      8.05127         0.057000      0.057692     -0.003905
O	      6.08745      8.06978      7.99267         0.052189     -0.016846     -0.046381
O	      8.57639      8.02749     10.02734        -0.116442     -0.019355      0.247628
