# total energy = -89.18610326 eV
 
CRYSTAL
PRIMVEC
1.949805 3.911608 1.949850 
1.992764 -3.954407 1.992767 
3.946889 -0.000025 -3.946952 
PRIMCOORD
16 1
Li	      5.59297     -0.01657     -1.84901         0.162253      0.302061     -1.310028
Li	      3.76229      1.83762      1.83279        -0.152472      0.638745      0.329518
Li	      3.76677     -0.01795     -0.02073        -0.742482      0.360664     -0.290855
Li	      3.73941     -1.87599     -1.84258        -0.313110     -0.148316     -0.402433
Mn	      7.48440     -0.04072      0.00445         7.717528     -0.249516      0.281610
Mn	      3.76712     -1.89832      1.86868         0.921730     -5.061302      3.336938
Ni	      5.63286     -0.04054      1.85622         1.728346      0.272587      3.554124
Ni	      5.61899     -1.89825      0.01740         2.676970     -2.925622     -0.965634
O	      5.75426     -0.01919      0.00066        -2.244510      1.900025     -1.608386
O	      3.60377      1.83757     -0.02029         1.568071      1.248794     -0.346451
O	      3.74288     -0.02052     -2.01141        -0.853584      0.179095     -1.533886
O	      3.74888     -0.14570      1.97086        -1.592564      3.066866      1.102289
O	      3.76313     -1.87722      0.13840        -1.457849     -0.579188     -3.882288
O	      1.85959      1.96383      1.75780        -1.661475      1.566033      1.796128
O	      1.77184      0.10611     -0.00616        -1.984787      0.027086     -0.634744
O	      1.98434     -2.00416      1.88319        -3.772066     -0.598012      0.574099
