# total energy = -208.70069675 eV
 
CRYSTAL
PRIMVEC
0.013183 6.189893 6.233410 
6.275273 0.028469 6.218140 
4.189725 4.122519 0.012849 
PRIMCOORD
36 1
Li	      6.25755      6.20835     12.40777        -0.046590      0.056391      0.082939
Li	      8.45753      8.27013     12.36319         0.054612     -0.030508      0.042639
Li	      2.20729      6.15122      8.35526         0.155129     -0.010911     -0.041708
Li	      8.31657      4.11595      4.18763        -0.060436     -0.000245     -0.023597
Li	      6.36648      8.30839     10.38288        -0.006398      0.079116      0.025713
Li	      4.22859      4.06877      4.17216        -0.001676     -0.031144     -0.024261
Li	      6.27625      4.15630      6.20251        -0.017345     -0.047919      0.021101
Li	      4.18372      6.21244      6.23155        -0.016567     -0.005456      0.093385
Li	      8.29756      8.32395      8.39151        -0.038035      0.125919     -0.012764
Ti	      2.08890      4.22474      6.25544         0.060365      0.277590      0.217708
V	      0.04881      2.02984      2.00921        -0.053204     -0.104262     -0.005680
Co	      8.38009      4.17574      8.28527         0.023493      0.042737      0.103092
Co	      6.33886      6.01076      4.17878        -0.139534      0.019452     -0.191238
Co	      8.38188      6.19218      6.22923         0.034388      0.079132     -0.175994
Co	      6.09151      6.18952      8.35975         1.411401     -0.256319      0.359228
Cu	      8.37180      6.28101     10.39664         0.140039     -0.064172     -0.107260
Ni	      4.18927      2.11246      2.10613        -0.150584     -0.263349     -0.071758
Ni	     10.41617      8.30773     10.41743        -0.074883     -0.110518     -0.086123
O	      8.40771      8.23207     10.39446        -0.118537      0.074705      0.057819
O	      2.03306      2.19424      2.07861        -0.036753      0.042346      0.042086
O	      4.05002      4.20256      2.08280        -0.041468      0.064334      0.010736
O	      4.08764      2.04858      4.17446         0.093996      0.013571      0.081554
O	      6.24598      4.23905      4.13450        -0.023984      0.003431      0.042877
O	      6.20124      2.13217      6.40818        -0.106943     -0.006785     -0.149078
O	      8.37377      4.33476      6.38137        -0.037093     -0.077801      0.070768
O	      2.04779      4.06306      4.12352         0.093548     -0.056940      0.024306
O	      4.16446      6.20628      3.99706         0.045502     -0.037931      0.076951
O	      4.06342      3.95367      6.22169        -0.108263      0.086232      0.055444
O	      6.36635      6.24448      6.23650         0.038641     -0.002355      0.328192
O	      6.42759      4.12878      8.31648         0.038444      0.110740     -0.173999
O	      8.43281      6.11150      8.34017         0.117415     -0.108639      0.039345
O	      2.17105      6.09362      6.18685        -0.024953     -0.187924      0.065096
O	      4.32990      8.25101      6.26021         0.186633     -0.011273     -0.146650
O	      4.29200      6.21462      8.28305        -1.040255      0.212214      0.120841
O	      6.26360      8.24079      8.20784        -0.047233     -0.119370     -0.285005
O	      6.40865      6.21326     10.27524        -0.302872      0.245909     -0.466709
