# total energy = -208.84782655 eV
 
CRYSTAL
PRIMVEC
-0.025634 6.209966 6.461807 
6.043090 -0.032053 6.468356 
4.014254 4.130850 -0.008838 
PRIMCOORD
36 1
Li	      6.00620      0.08257      6.32207        -0.139842      0.011476      0.059698
Li	      8.05230      8.34096     12.83417        -0.022810      0.100351      0.042544
Li	      6.00724     10.31235      8.61626        -0.026555      0.062520     -0.006436
Li	      4.01401      2.08918      2.23178        -0.051462      0.037022     -0.023736
Li	      6.06229      2.02213      4.43621        -0.035911      0.046325      0.048258
Li	      4.07022      1.99034      6.42415         0.037237     -0.104062      0.038739
Li	      6.05825      4.03332      6.46634         0.111467      0.002796      0.070987
Li	      5.98126      4.20677     10.65396         0.065178     -0.045641     -0.084152
Li	      5.99337      6.15182      8.73985         0.022480     -0.054580     -0.066821
Ti	      6.04297      6.11363      4.27470         0.006587      0.077786     -0.515765
V	      5.84228      8.25102      6.54915         0.139572     -0.187760      0.213425
Co	      6.02866      2.03973      8.34481         0.106560      0.000060     -0.343063
Co	      8.02182      4.17945      8.39792        -0.075815     -0.022225      1.338543
Co	      4.00788      6.11931      6.48913         0.047427     -0.032500      0.094697
Co	      4.04292      4.15215      8.57725         0.078926     -0.150673     -0.265632
Cu	      4.08134      6.18237     10.76614        -0.194426      0.096369      0.298088
Cu	      7.95070      6.29400     10.74645         0.104716     -0.053587     -0.145910
Ni	      4.03776      4.09314      4.31182         0.028551     -0.072994      0.023886
O	      5.98903      6.21010     10.76773         0.210822     -0.003257     -0.031846
O	      1.95389      2.18067      2.37886        -0.037344     -0.429238      0.435983
O	      3.93474      4.22434      2.29485        -0.068149      0.028616     -0.300351
O	      3.97390      2.01380      4.35385        -0.118230     -0.042412     -0.040392
O	      6.08371      4.20546      4.34516         0.022351      0.043746     -0.012836
O	      6.10840      2.01838      6.55176        -0.020804     -0.009486      0.163299
O	      8.05917      4.10383      6.62142         0.206410     -0.022350     -1.310109
O	      2.02697      3.99750      4.57900        -0.092203      0.023297      0.036823
O	      4.04730      6.13367      4.51460        -0.116872      0.130972      0.133241
O	      3.95192      4.18667      6.54868        -0.039175      0.054151      0.017440
O	      5.95453      6.29420      6.38575        -0.109435      0.040184     -0.013867
O	      5.98993      4.02651      8.63468         0.031801     -0.053019     -0.050622
O	      8.07481      6.24688      8.68900         0.002935      0.520864      0.219362
O	      2.04535      5.97454      6.39579         0.041592      0.152522     -0.136777
O	      4.05947      8.12254      6.52997        -0.010137     -0.005158     -0.028731
O	      4.00414      6.04137      8.37775        -0.001905      0.076386      0.106837
O	      6.10274      8.23308      8.34899        -0.074210      0.025949     -0.049077
O	      8.01722      8.39751     10.50223        -0.029325     -0.242450      0.084275
