# total energy = -206.63028580 eV
 
CRYSTAL
PRIMVEC
-0.014547 6.156094 6.390640 
6.077773 -0.027117 6.403101 
4.030507 4.091203 0.002631 
PRIMCOORD
36 1
Li	      2.07625      8.13529      6.44422         0.004268      0.102419      0.000150
Li	      3.94723      2.09062      2.07073        -0.004550     -0.000301      0.062548
Li	      4.01613      6.05943      2.23994         0.084492      0.096055     -0.051389
Li	      2.03898      4.15272      2.20815         0.014188     -0.111497     -0.035356
Li	      1.97889      2.08268      4.11310         0.112785     -0.054807     -0.149288
Li	      7.99741      6.13748      6.56876         0.043139     -0.096925     -0.050385
Li	      4.02915      8.07538      4.33418        -0.092423      0.040378     -0.026216
Li	      2.05842      6.06972      4.16260        -0.006744     -0.024790      0.022079
Li	      8.08792      8.06759      8.53857         0.073668      0.057495      0.082965
Ti	      6.09567      8.21318     10.45398        -0.132491      0.071234     -0.100007
V	      6.07657      3.90561      6.54634        -0.039358     -0.137649      0.102515
Co	      4.04600     10.22836      6.42756        -0.202419     -0.019061      0.326442
Co	      4.01187      0.06182      4.26770        -0.034934     -0.032898      0.285313
Co	      3.94098      4.18131      4.19530        -0.069360     -1.073722     -0.291192
Co	      2.03965      4.07877      6.35276         0.149670      0.112434     -0.173609
Cu	      2.04989      0.10237      2.08521         0.002724     -0.026524      0.091556
Cu	      4.02255      6.19295      6.38168        -0.154227      0.045890     -0.506906
Cu	      6.06677      6.13045      8.55646        -0.100047     -0.066866      0.162885
O	      4.03339      6.20193      8.74966         0.039224      0.005549      0.165558
O	      2.01250      1.93242      2.06503         0.056074      0.242827     -0.090748
O	      4.12095      4.10851      2.11547         0.132415     -0.077899     -0.849042
O	      4.16363      2.06815      4.25352         0.104829      0.073328      0.070070
O	      6.11045      4.04839      4.46146        -0.106312      0.008424      0.150046
O	      6.05021      2.12727      6.29029        -0.015482     -0.201584     -0.100025
O	      7.91814      4.11247      6.26793         0.246693      0.069577     -0.077619
O	      2.04569      4.00701      4.46586         0.121504      0.091439      0.129149
O	      4.03665      5.97848      4.21943        -0.082605      0.636446      0.459469
O	      4.14059      4.10811      6.36549         0.079787      0.077012      0.092243
O	      5.97336      6.16561      6.53835         0.007990      0.189009      0.200585
O	      6.06374      3.95082      8.29327         0.133045      0.049224     -0.125189
O	      7.95291      6.09064      8.57970        -0.000420      0.029303      0.017111
O	      2.06440      5.99581      6.27457        -0.394117     -0.227102     -0.225410
O	      4.18541      8.18253      6.36576         0.030310      0.363468      0.064964
O	      6.08664      8.41631      8.52002         0.031113     -0.147020      0.005280
O	      5.93649      6.27284     10.68450         0.084149      0.016827      0.350278
O	      7.99365      8.35717     10.66916        -0.116577     -0.079695      0.011175
