# total energy = -210.50757177 eV
 
CRYSTAL
PRIMVEC
0.022551 6.156895 6.171290 
6.298275 -0.020256 6.212984 
4.162350 4.096585 0.022729 
PRIMCOORD
36 1
Li	      4.28479     10.16970      6.27516         0.172475     -0.118989      0.067892
Li	      6.16720      4.08862      2.02875        -0.140021      0.117501     -0.067902
Li	      4.16847      2.13116      1.98902        -0.065586      0.141752     -0.060795
Li	      6.32092      8.18671     10.23576        -0.020147      0.012795      0.003022
Li	      2.12358      4.05976      2.11570         0.117233      0.008686      0.006331
Li	      4.16371      4.15266      4.09963        -0.044156      0.051254     -0.085506
Li	      4.21537      8.15738      4.21211         0.055623      0.061507      0.134588
Li	      2.12140      6.15067      4.20473        -0.137457     -0.059642      0.131934
Li	      4.08953      6.21083      6.15750        -0.032965     -0.016402     -0.071958
Ti	      4.28825      6.04019     10.24594         0.281819     -0.098342     -0.107099
V	      4.27996      2.06671      6.16879        -0.080650     -0.149892     -0.023121
Co	      4.17177      6.09310      2.13135         0.654821     -1.702312      0.142513
Co	      2.00958      2.12786      4.02525        -0.106610     -0.406650      0.944447
Co	      6.31213      4.10215      6.20250        -0.134752      0.112295      0.114665
Co	      6.14585      8.28627      6.23140        -0.508894     -0.315156     -0.569896
Co	      6.27830      6.14425      8.26114        -0.113279      0.048021     -0.169192
Ni	      2.17460      8.13446      6.24588         0.123553     -0.217724      0.174240
Ni	      8.33963      8.17291      8.27247        -0.044546      0.069570      0.105562
O	      2.06698      2.05104      2.11352        -0.293881      0.134094     -0.733881
O	      4.12934      4.21264      2.10797        -0.062545      0.813355     -0.269028
O	      4.21643      1.97271      4.33347        -0.234641      0.148704     -0.359679
O	      6.40761      4.22995      4.28254        -0.158897      0.170860     -0.233576
O	      6.25218      2.17640      6.29077        -0.103546      0.042760     -0.593233
O	      8.28151      4.12090      6.16178        -0.028578     -0.005347      0.055964
O	      2.10039      3.96484      4.35176         0.066961      0.003061     -0.617898
O	      4.21057      6.14305      4.00691         0.688729      0.481283      0.939583
O	      4.34234      3.99767      6.20776         0.075437      0.187973     -0.172033
O	      6.38091      6.07019      6.27953         0.080781      0.140129      0.701641
O	      6.24710      4.01701      8.13625        -0.017893      1.059925     -0.033660
O	      8.29976      6.10189      8.13266        -0.768364      0.035074      0.272649
O	      2.12308      6.08092      6.17836         0.108454     -0.108194     -0.153723
O	      4.24652      8.20114      6.18505         0.141003      0.007066      0.109120
O	      4.24831      6.12922      8.35838         0.824864      0.178215     -0.149170
O	      6.30085      8.18575      8.08645         0.034679     -0.994216      0.929156
O	      6.21886      6.15773     10.19678        -0.283318      0.110430     -0.327921
O	      8.34065      8.27215     10.37946        -0.045704      0.056556     -0.034037
