# total energy = -214.60768588 eV
 
CRYSTAL
PRIMVEC
0.005442 6.257272 6.078978 
6.179082 -0.023681 6.108580 
4.110063 4.181563 -0.006197 
PRIMCOORD
36 1
Li	      8.20106      8.26108     12.11934         0.004275     -0.019693     -0.098664
Li	      2.02662      6.27866      8.04808         0.071904     -0.061409     -0.004708
Li	      6.18828      2.05395      8.10167        -0.022997     -0.016785      0.014141
Li	      8.29071      6.20457      6.11954         0.063842      0.003098      0.025499
Li	      6.19919      4.11696      6.10863         0.033537     -0.087328      0.034067
Li	     10.25954      8.35487     10.18319         0.005071     -0.035572      0.009880
Li	      2.13769      6.26053      4.09523        -0.025187      0.068492     -0.035717
Li	      2.06881      4.29537      6.07074        -0.021870      0.041562      0.001066
Li	      3.93321      6.23613      6.08046        -0.025913      0.035946      0.000165
Ti	      6.06300      6.30122      4.26898        -0.420923      0.033741      0.068691
V	      4.08188      8.35189      8.05162        -0.119761      0.042344      0.121952
Co	      0.07442      6.29193      6.06889         0.077227      0.034704      0.001498
Co	      8.24202     10.40240     10.13321         0.004577     -0.012856      0.036752
Co	      6.17736      8.32432     10.15084         0.054858     -0.026651      0.045392
Co	      8.20386      4.19053      8.07606         0.112606     -0.097864     -0.040757
Co	      4.19570      4.08172      7.98283        -0.030237     -0.007394     -0.012158
Co	      6.16685      6.25865      8.08183         0.070334     -0.031189      0.018327
Cu	      4.12454      4.20361      4.18236        -0.005229      0.128532      0.102249
O	      2.22352      2.03700      2.15979         0.064420      0.038022      0.071771
O	      4.12040      4.03845      2.16838         0.049577      0.050626     -0.115934
O	      4.17265      1.89231      4.04322        -0.027681     -0.070694      0.016525
O	      6.25428      4.10945      4.10123         0.063867     -0.047418      0.006937
O	      6.20978      1.92658      5.97800        -0.000961     -0.044998     -0.079407
O	      8.42411      4.11072      5.99745         0.021279     -0.033224      0.042306
O	      2.13659      4.01155      4.06447        -0.107752     -0.121435      0.001074
O	      4.23392      6.33391      4.04423         0.402793      0.009143      0.104237
O	      4.10768      4.18044      6.16338        -0.017129     -0.012181      0.098462
O	      6.18238      6.24655      6.10421        -0.019711     -0.005970     -0.129144
O	      6.15399      4.33197      8.12410        -0.015553      0.119175     -0.009562
O	      8.09669      6.29464      8.15151        -0.109890      0.016480     -0.066528
O	      1.93155      6.26654      6.06059        -0.131391      0.040447     -0.012621
O	      4.13206      8.48980      6.19509         0.018243      0.069816     -0.113369
O	      4.19831      6.29656      8.16255         0.028674     -0.019690     -0.032526
O	      6.07494      8.23417      8.19791         0.015865      0.012545     -0.030822
O	      6.06125      6.38167      9.99320        -0.019643      0.016827     -0.020853
O	      8.09410      8.47945      9.98030        -0.041122     -0.009147     -0.018220
