# total energy = -214.69203852 eV
 
CRYSTAL
PRIMVEC
0.009240 6.205303 6.191930 
6.148020 0.030710 6.171002 
4.116053 4.140220 0.004312 
PRIMCOORD
36 1
Li	      2.17919      8.24159      6.21707         0.022321     -0.004386      0.020771
Li	      4.06573      8.21530      8.26611         0.018280      0.013572     -0.006582
Li	      6.24083      8.27940     10.24029         0.039394      0.033394     -0.048790
Li	      6.13337      2.21465      8.29780         0.000776     -0.001462      0.020346
Li	      8.04232      4.24849      8.30846        -0.029771      0.060772      0.016509
Li	      8.17432      6.26944      6.22610        -0.006325     -0.008706     -0.036382
Li	      6.14591      4.17131     10.20551        -0.023821     -0.051188     -0.006685
Li	      4.10198      6.20462      6.18137        -0.008875      0.009108      0.041087
Li	      6.19358      6.15119      8.27855        -0.002535     -0.005582      0.068839
Ti	      6.11620      8.20478      6.17842        -0.226277     -0.074051      0.075861
V	      6.04327      0.20303      6.22862         0.006832     -0.135059      0.029725
Co	      2.09748      6.20018      8.23807         0.053144     -0.037889      0.072051
Co	      4.17760      6.21889     10.26867        -0.158132     -0.021455     -0.044074
Co	      2.00559      2.08057      4.04628        -0.003807     -0.020234     -0.042228
Co	      4.12675      4.10802      4.07400        -0.004392     -0.042049     -0.012196
Co	      8.27807      6.32245     10.27661        -0.076853      0.043626     -0.055250
Co	      4.12806      4.14430      8.24445         0.017038      0.012275      0.077239
Ni	      6.12888      4.14277      6.20857         0.095876     -0.000666     -0.141341
O	      2.04588      1.89474      2.17995        -0.004257     -0.010864      0.093087
O	      4.23963      4.11865      1.89003         0.052783      0.051681      0.033908
O	      3.92482      2.05461      4.10421        -0.117914      0.087282     -0.024865
O	      6.15540      4.06519      4.02036         0.040784      0.035031      0.005972
O	      6.14752      1.97812      6.18780        -0.011652      0.032029     -0.016466
O	      8.34325      4.13618      6.20402         0.063475      0.033759     -0.022390
O	      2.09473      4.30715      4.18761        -0.042254      0.056175      0.109804
O	      4.13245      6.15542      4.14871         0.123777     -0.059752     -0.064436
O	      4.05054      4.13172      6.26832        -0.135645     -0.022153      0.000868
O	      6.13306      6.28908      6.05532         0.013259      0.211840     -0.012264
O	      6.05792      4.20464      8.16415        -0.073402     -0.036530      0.143359
O	      8.20454      6.36265      8.40055         0.013680      0.017301      0.014608
O	      1.98121      6.18678      6.22046         0.023072     -0.025892     -0.037003
O	      4.22725      8.40748      6.20567         0.279915     -0.014803      0.022295
O	      4.00274      6.10088      8.25796         0.039721     -0.060560     -0.068057
O	      6.25853      8.35838      8.14663         0.047144      0.025334     -0.120534
O	      6.30241      6.27270     10.51006        -0.041819      0.014552     -0.015593
O	      8.26308      8.24833     10.18869         0.016462     -0.104448     -0.071193
