# total energy = -215.18522647 eV
 
CRYSTAL
PRIMVEC
0.003663 6.309304 6.109310 
6.315973 -0.012160 6.125126 
4.202421 4.208639 0.000120 
PRIMCOORD
36 1
Li	      6.34608      6.22619     12.12159         0.021672     -0.009791      0.032653
Li	      2.17595      8.34114      6.02064         0.039918     -0.058134     -0.021620
Li	      6.45979     10.36636      8.22564        -0.023059     -0.070949      0.059989
Li	      8.35468      4.24069      4.10186         0.027165      0.131401     -0.009939
Li	      6.24748      2.21521      4.15190        -0.096138     -0.015658     -0.127294
Li	      6.40112      6.19235      4.13003         0.060611      0.000433     -0.051750
Li	      4.37220      4.07574      4.11280         0.003484     -0.035728     -0.045740
Li	      2.06181      4.24551      6.06446        -0.057825      0.044145      0.126121
Li	      4.15831      4.33056      8.20819        -0.078475     -0.024622     -0.017663
Ti	      0.11601      1.99283      2.00603         0.121025     -0.201545      0.019359
V	      2.09452      4.19327      2.03156         0.030694      0.103966      0.162879
Co	      6.20110      6.56410      8.22886        -0.227111     -1.689020     -0.282216
Co	      4.22776      2.06752      2.11309         0.267071      0.375820      0.087676
Co	      4.14014      2.20332      6.01068         0.081890      0.014993      0.938244
Co	      6.27131      4.23343      6.07145        -0.031391     -0.051635     -0.145112
Co	     10.46535      8.38248     10.19237        -0.089210      0.171424     -0.090642
Co	      8.35804      6.35958     10.23012         0.112308     -0.004044      0.003518
Co	      4.21014      6.29523      6.09826        -0.189844      0.253114     -0.145994
O	      2.03576      2.18859      2.01915        -0.295945      0.031146     -0.058700
O	      4.09739      4.27416      2.02961        -0.083769      0.312392     -0.018823
O	      4.17789      2.12693      4.08278        -0.065776      0.013118     -0.621191
O	      6.34291      4.19246      4.24778         0.044803      0.037637      0.125829
O	      6.24098      2.11071      6.25203        -0.217892     -0.090452      0.088527
O	      8.27984      4.26063      6.29603        -0.016284      0.230272     -0.113450
O	      1.93985      4.31855      3.91178        -0.076096      0.034061     -0.035106
O	      4.21990      6.44649      3.94755         0.082408     -0.021764     -0.159292
O	      4.34406      4.32088      6.07756         0.022468     -0.382202      0.028934
O	      6.23402      6.30788      6.22411         0.350261      0.518008      0.663297
O	      6.37239      4.11121      8.15741         0.053458      0.005807     -0.149738
O	      8.45185      6.23016      8.21904        -0.326098      0.030492      0.080564
O	      2.25304      6.25613      5.96023        -0.085733     -0.032590     -0.085101
O	      4.22295      8.26901      6.00591         0.005806     -0.021781     -0.072073
O	      4.23671      6.32995      8.14002         1.029183      0.148653      0.165713
O	      6.31644      8.38238      8.18653        -0.358325     -0.120407      0.049159
O	      6.28373      6.10366     10.16127        -0.097954      0.417190     -0.422009
O	      8.58433      8.24454     10.18365         0.062701     -0.043748      0.040997
