# total energy = -90.05250014 eV
 
CRYSTAL
PRIMVEC
1.960067 3.932196 1.960112 
2.003252 -3.975220 2.003256 
3.967662 -0.000025 -3.967725 
PRIMCOORD
16 1
Li	      5.65201     -0.01674     -1.86852         0.131434      0.265993     -1.149631
Li	      3.80199      1.85701      1.85213        -0.149308      0.566029      0.267411
Li	      3.80653     -0.01814     -0.02095        -0.666463      0.317041     -0.257234
Li	      3.77888     -1.89579     -1.86203        -0.277470     -0.107941     -0.342910
Mn	      7.56339     -0.04116      0.00449         6.836004     -0.218167      0.247906
Mn	      3.80688     -1.91835      1.88840         0.758517     -4.448521      2.850101
Ni	      5.69232     -0.04096      1.87581         1.458321      0.222897      3.089688
Ni	      5.67830     -1.91828      0.01758         2.308917     -2.518391     -0.837663
O	      5.81499     -0.01939      0.00066        -1.855439      1.627755     -1.388258
O	      3.64180      1.85696     -0.02050         1.363281      1.081481     -0.277619
O	      3.78238     -0.02074     -2.03264        -0.737502      0.122321     -1.369089
O	      3.78844     -0.14723      1.99165        -1.379467      2.624070      0.966225
O	      3.80284     -1.89703      0.13986        -1.231950     -0.471024     -3.330618
O	      1.87921      1.98456      1.77635        -1.468075      1.429963      1.580559
O	      1.79054      0.10723     -0.00622        -1.813473      0.053677     -0.551469
O	      2.00528     -2.02531      1.90307        -3.277326     -0.547182      0.502601
