# total energy = -203.86583183 eV
 
CRYSTAL
PRIMVEC
-0.007994 6.129301 6.423794 
6.260310 -0.019077 6.435703 
4.147201 4.067532 0.012420 
PRIMCOORD
36 1
Li	      4.22771      4.06064      0.20242         0.149472     -0.035805     -0.028540
Li	      2.04839      0.03339      2.14070         0.087246     -0.127208     -0.062506
Li	      4.08237      2.05716      2.22038         0.035245      0.039898      0.002019
Li	      4.21267      6.05489     10.58755        -0.038949      0.024670     -0.030247
Li	      6.21380      8.10076     10.61917        -0.002631      0.005740     -0.023175
Li	      2.19929      4.00514      2.13312        -0.014267      0.098463      0.038661
Li	      2.03533      2.07530      4.06359         0.066118     -0.026596      0.046095
Li	      4.14054      4.08342      4.14621         0.033108     -0.046566      0.054314
Li	      4.13244      6.13174      6.58002        -0.122453     -0.052725      0.059490
Ti	      4.14831      1.99484      6.15231         0.052899      0.096653     -0.698864
V	      6.18414      4.09741      6.21708        -0.046868     -0.000733     -0.337779
Fe	      4.17594      8.15317      4.48052         0.046066      0.335274     -0.094327
Co	      2.07617      4.16303      6.48023         0.112959     -0.092797      0.041394
Cu	      2.14678      8.12648      6.55058         0.211343     -0.222961     -0.213622
Cu	      8.29077      8.16021      8.60131        -0.036003     -0.022450     -0.025089
Ni	      2.09908      6.12302      4.32045        -0.145360     -0.040447      0.211637
Ni	      4.14809      6.10767      2.15567         0.459947     -0.803972      0.128110
Ni	      6.22260      6.09136      8.61607         0.002724      0.045880      0.093091
O	      4.21345      5.93375      8.60057        -0.260297      0.197714      0.013476
O	      1.95621      2.04182      2.03037        -0.037887      0.288718      0.236389
O	      4.14055      4.21840      2.19520        -0.314853      0.011647      0.023781
O	      4.16027      1.96724      4.33218         0.016963      0.003738      0.666621
O	      6.24687      4.06322      4.47785        -0.049299      0.011323      0.092789
O	      6.09292      2.10732      6.43751         0.049131     -0.165725      0.139128
O	      8.12597      4.15098      6.52232         0.216673     -0.050829      0.059589
O	      1.90847      4.08443      4.35789         0.159111     -0.114477      0.087991
O	      4.14452      6.29763      4.21464         0.158667     -0.249418     -0.200884
O	      4.17080      3.98098      6.24733        -0.039856     -0.097471     -0.038016
O	      6.33058      6.07250      6.51455         0.015883      0.006948     -0.221156
O	      6.04054      4.01742      8.42847         0.078498      0.161037     -0.074351
O	      8.34567      6.25555      8.60512         0.005231      0.021283     -0.154540
O	      2.12555      6.07297      6.40066        -0.045864      0.352865      0.100533
O	      4.28359      8.13817      6.50204        -0.368941      0.074425      0.072572
O	      6.42234      8.12664      8.53558        -0.115153      0.145861     -0.007640
O	      6.30518      5.94279     10.66791        -0.139751      0.068499      0.130610
O	      8.53888      8.13162     11.04356        -0.178852      0.159543     -0.087560
