# total energy = -205.53857940 eV
 
CRYSTAL
PRIMVEC
0.039119 6.128953 6.585031 
6.118101 0.058147 6.564112 
4.091048 4.085399 0.027865 
PRIMCOORD
36 1
Li	      2.02767      2.03805      0.05984         0.013222     -0.013251     -0.007347
Li	      4.01965      2.11159      2.26263        -0.035254      0.015140      0.011057
Li	      8.09564      4.15542      4.48405         0.058544     -0.024985      0.010825
Li	      6.17988      2.13877      4.49147         0.059057     -0.066603      0.042653
Li	      6.16779      2.05326      8.63441         0.040906     -0.029339     -0.035204
Li	      6.09428      4.10513      6.63596        -0.020502      0.038390      0.128733
Li	      8.19738      6.18959     10.80878        -0.032612      0.037287     -0.125978
Li	      4.13279      6.10133      6.62066         0.043700     -0.007392      0.008217
Li	      8.21870      8.15691      8.76373         0.040508     -0.013967     -0.034977
Ti	     10.08618      8.13798     10.93099        -0.469222     -0.107614     -0.024305
V	      6.03196      6.27775      8.86136         0.014153      0.010450     -0.158099
Fe	      2.11146      4.11471      6.52641         0.007973     -0.023205     -0.008939
Co	      6.09547      4.14320      2.23025        -0.010859      0.205206      0.117920
Cu	      6.11641      0.09429      6.58419         0.041599     -0.082977     -0.057799
Cu	      2.10217      2.03044      4.30966         0.041423      0.051708     -0.071545
Cu	      4.09862      2.07493      6.56567        -0.042818      0.047904      0.168947
Ni	      2.11772      4.03792      2.16732         0.072079     -0.072692     -0.013681
Ni	      4.14205      4.10394      4.40450        -0.057604      0.143061      0.040526
O	      8.28585      8.19821     10.99266         0.428440     -0.013154     -0.037147
O	      2.06820      1.96097      2.07479         0.218966      0.580656      0.060296
O	      4.18535      4.09081      2.38809        -0.717728     -0.290770      0.095000
O	      4.03208      2.07490      4.56693        -0.103203     -0.058807     -0.142542
O	      6.15782      4.16928      4.14437         0.197014     -0.076383      0.133984
O	      6.05988      1.95277      6.55825         0.165695      0.294088      0.008843
O	      8.31765      4.18186      6.65334        -0.134343     -0.169360     -0.049945
O	      2.03649      4.08405      4.47310        -0.019802     -0.079089      0.056797
O	      4.14971      6.21371      4.46895         0.002723      0.302206     -0.003920
O	      4.07357      4.08517      6.53064        -0.076205      0.077474      0.003942
O	      6.16876      6.17553      6.84963        -0.130869      0.079961      0.083536
O	      6.16728      4.22546      8.89420        -0.093009     -0.037011      0.193386
O	      8.02114      6.13430      8.70445        -0.036421      0.072489      0.060746
O	      1.93105      6.10057      6.84319         0.230134     -0.012866     -0.195553
O	      4.18674      8.37176      6.39698        -0.065960     -0.320398     -0.159213
O	      4.22424      6.16539      8.71830         0.346869     -0.086826     -0.002011
O	      6.14713      8.13427      8.71753         0.073387     -0.293063     -0.077543
O	      6.17529      6.14935     10.66394        -0.049981     -0.076264     -0.019661
