# total energy = -204.58172785 eV
 
CRYSTAL
PRIMVEC
0.028946 6.119157 6.317078 
6.464900 0.004190 6.340897 
4.309622 4.094529 0.003311 
PRIMCOORD
36 1
Li	      8.42597      2.13320      6.32425        -0.081661     -0.011632      0.025262
Li	      6.42489      4.08302      2.15675        -0.099626      0.042899      0.138228
Li	      8.58781      4.09313      4.34405        -0.253103      0.006198      0.042845
Li	      6.49931      2.07782      4.41259        -0.030781      0.129980     -0.054454
Li	      6.49532      2.02230      8.38824         0.116221     -0.112451      0.038777
Li	      8.53151      4.13020      8.33492        -0.006296     -0.074928      0.044426
Li	      4.37842      4.13836      4.12442         0.171468     -0.041285     -0.006767
Li	      6.56567      3.99058      6.42634        -0.042212      0.073422     -0.164249
Li	      8.72115      8.17820      8.55329        -0.055736      0.050379      0.023430
Ti	      4.16140      2.06851      2.14650        -0.533908      0.204478      0.438094
V	      2.36446      4.12620      6.34831         0.217257     -0.292573     -0.220963
Fe	     10.70917      8.18257     10.49527         0.033196     -0.178703      0.314683
Co	      6.50276      5.90221      4.12896        -0.024511      1.564533     -0.064190
Cu	     10.63142      4.12414      6.37720         0.066271     -0.147331      0.133508
Cu	      8.68657      6.07902      6.38093         0.115218     -0.145063      0.035292
Cu	      8.61775      6.13493     10.53718         0.145534     -0.099624      0.252218
Cu	      6.48704      6.10444      8.51758        -0.001682      0.214688     -0.087968
Ni	      4.42533      6.12871      6.28564         0.199057     -0.011830      0.090998
O	      8.44920      6.15000      8.67099        -0.253181     -0.020023     -0.291296
O	      6.31391      6.05199     10.81932         0.047908      0.269699     -0.244854
O	      2.28680      2.01864      2.08361         0.464704     -0.018977     -0.369820
O	      4.34565      4.00247      1.92916        -0.019158     -0.068477      0.105925
O	      4.25776      2.12668      4.00004        -0.093951     -0.246158     -0.261963
O	      6.47193      4.13483      4.19642        -0.045917     -1.031561     -0.037601
O	      6.34730      1.97121      6.39043        -0.104626      0.035296      0.027094
O	      8.51055      4.18079      6.36299        -0.108585      0.017359      0.074148
O	      2.10367      4.20001      4.36647        -0.071624     -0.207911     -0.088574
O	      4.52927      6.19187      4.26741         0.271929     -0.411774     -0.256412
O	      4.17953      4.03533      6.32374        -0.029458     -0.064045      0.042712
O	      6.54576      6.32034      6.13416        -0.099972      0.255539      0.100940
O	      6.45635      4.15413      8.56561        -0.070301      0.168146     -0.195547
O	      2.35260      5.98437      6.17872         0.018023     -0.005508      0.067826
O	      4.55018      8.21516      6.33308        -0.121340      0.059428     -0.092826
O	      4.48533      6.22925      8.30815         0.204267     -0.075482      0.057210
O	      6.42749      8.15345      8.16755         0.014240     -0.185144      0.278391
O	      8.71507      7.99514     10.60260         0.062338      0.358435      0.105476
