# total energy = -204.40121911 eV
 
CRYSTAL
PRIMVEC
0.024073 6.191533 6.402171 
6.240726 0.084050 6.341367 
4.210037 4.136531 0.007027 
PRIMCOORD
36 1
Li	      0.04284      6.12562      6.34076         0.015979      0.032261     -0.019542
Li	      4.22268      6.26194     10.52054        -0.049840      0.042906     -0.006083
Li	      6.30019      6.22070      4.40151         0.011891     -0.081079      0.126347
Li	      6.33621      4.34133      6.32189        -0.003660      0.052965     -0.007770
Li	      0.08426      4.21787      4.34320        -0.046228      0.000570     -0.000180
Li	      6.24781      8.25130      6.38725        -0.012723     -0.065272      0.117044
Li	      4.23532      6.25903      6.53501         0.091862     -0.026854     -0.015069
Li	      4.12787      4.32340      8.44414        -0.037789     -0.038645     -0.023408
Li	      6.25504      6.30103      8.45125         0.046884      0.014359     -0.110611
Ti	      4.20770      4.09041      4.37399         0.204850     -0.227673      0.539987
V	      6.17223      2.35689      8.41861        -0.104087     -0.010594     -0.136524
Fe	      2.24313      8.25484      6.36279        -0.276918      0.057398     -0.069567
Co	      8.34191      6.22990      6.36540        -0.026228      0.023575     -0.003687
Cu	      6.33862     10.30375      8.49776        -0.073320     -0.114377     -0.024226
Cu	      4.29571      8.22115      8.38692         0.216248     -0.108198     -0.104647
Cu	      6.31703      8.26706     10.59662        -0.167242      0.129760      0.093150
Cu	      2.15709      4.12998      2.13759        -0.114231     -0.013612      0.029666
Cu	      8.29144      6.26705     10.66501         0.116900     -0.006542      0.118899
O	      4.12522      6.33293      8.52528         0.099385     -0.001376      0.051245
O	      6.34793      8.35543      8.60648        -0.230072      0.019055     -0.183015
O	      6.36230      6.34025     10.59610         0.118428     -0.294701      0.005024
O	      1.81060      1.92798      2.03312         0.224375      0.077072      0.106667
O	      4.19513      4.00598      2.23440         0.058675      0.073508     -0.110407
O	      4.21468      2.11945      4.40622        -0.246760      0.112891      0.080745
O	      6.14687      4.11120      4.21063        -0.115805      0.118142      0.016459
O	      6.16117      2.11846      6.55675         0.051539      0.005703      0.031870
O	      8.35671      4.24601      6.51848         0.013161     -0.030614     -0.076746
O	      2.20728      4.18066      4.10837        -0.067750      0.029252     -0.032054
O	      4.11076      6.08904      3.99197        -0.059042     -0.064462      0.107979
O	      4.19290      4.09078      6.23911        -0.051288      0.048768     -0.375134
O	      6.46147      6.26820      6.39787        -0.074092     -0.024485     -0.072681
O	      6.28332      4.08741      8.52763         0.040415      0.288116      0.030314
O	      8.54200      6.34880      8.29343        -0.123089     -0.045856      0.035054
O	      2.10627      6.25701      6.48432        -0.010240     -0.045507     -0.130113
O	      4.14322      8.26031      6.36026         0.165734      0.024099     -0.042538
O	      8.28860      8.27718     10.73114         0.414079      0.049446      0.053549
