# total energy = -204.34273698 eV
 
CRYSTAL
PRIMVEC
0.003821 6.239693 6.214076 
6.334998 0.000019 6.217848 
4.219844 4.159020 0.003308 
PRIMCOORD
36 1
Li	      0.11558      6.20047      6.28268        -0.035524      0.005601      0.003356
Li	      2.12112      8.21738      6.29679         0.002435     -0.052275      0.001014
Li	      6.33036      2.21577      8.37585         0.024111      0.026518     -0.033895
Li	      2.05312      4.12138      2.17125        -0.004730     -0.002061     -0.023682
Li	      4.08309      4.35648      4.08582         0.002592     -0.030608     -0.009655
Li	      6.31217      4.19078      6.34919         0.011623      0.022268     -0.023127
Li	      2.32607      6.10209      4.17603        -0.008087      0.010323      0.001583
Li	      4.15840      6.21239      6.07033        -0.004375     -0.031906      0.013794
Li	      6.32452      6.14263      8.24270        -0.008533      0.039114     -0.018698
Ti	      8.45648      6.35449      6.40712         0.011286      0.162589      0.369828
V	      8.49386     10.35062     10.44479        -0.036840      0.019260     -0.063915
Fe	      6.30839      2.12092      4.14295         0.018322     -0.095356     -0.022650
Co	      4.20103      8.34544      8.20330        -0.076642      0.012196      0.056295
Ni	      2.07057      6.26802      8.21188        -0.026591      0.072671      0.050844
Ni	      0.07419      4.07944      4.08710        -0.081925      0.145881      0.036114
Ni	      2.04710      2.11488      4.09946         0.076184     -0.108439      0.010487
Ni	      2.10813      4.17632      6.18638         0.019597     -0.069888      0.060152
Ni	      4.30971      4.20485      8.25591        -0.055193      0.027440     -0.011513
O	      2.28387      2.06104      2.04780         0.140407      0.071608     -0.072330
O	      4.24605      3.91592      2.09449        -0.103053     -0.153839     -0.022988
O	      4.25012      1.95606      4.03965         0.023599     -0.043477     -0.032421
O	      6.50448      4.12380      4.10868         0.053073     -0.026138      0.026010
O	      6.18463      2.06436      6.07704        -0.142551     -0.001540      0.087134
O	      8.37488      4.29515      6.01858        -0.004393      0.094645     -0.012186
O	      2.06187      4.15434      4.24769         0.079514      0.084040     -0.148996
O	      4.28040      6.26427      4.11459        -0.120617     -0.087134      0.015067
O	      4.22419      4.09411      6.22611         0.048161     -0.234165     -0.093088
O	      6.49949      6.37951      6.16164         0.139907     -0.155551      0.099799
O	      6.28647      4.19607      8.32546         0.138020      0.038303     -0.083029
O	      8.45706      6.26572      8.22076         0.024774     -0.072387     -0.408299
O	      2.10665      6.06296      6.20604        -0.002893      0.191536     -0.028244
O	      4.26233      8.25928      6.37195        -0.093459     -0.012240      0.083860
O	      4.18079      6.32819      8.44286         0.055799      0.160604      0.030058
O	      6.26811      8.31886      8.31371        -0.078481     -0.034748      0.081252
O	      6.09726      6.26973     10.36360         0.016896     -0.005958     -0.010620
O	      8.38141      8.47525     10.34815        -0.002413      0.033111      0.092690
