# total energy = -207.46293427 eV
 
CRYSTAL
PRIMVEC
-0.012441 6.214942 6.339093 
6.185465 0.045916 6.282161 
4.145228 4.125719 0.009097 
PRIMCOORD
36 1
Li	     10.26234      4.25633      6.36760        -0.040438      0.018539      0.015302
Li	      6.26192      4.16867      2.29034         0.024781      0.026568      0.044462
Li	      4.09109      2.11595      2.20275         0.012107     -0.019046      0.020107
Li	      4.13881      0.12415      4.17686        -0.140222      0.105552      0.011275
Li	      6.13371      2.19637      4.23505        -0.048174      0.023897     -0.002332
Li	      2.07921      2.01969      4.12571         0.081532     -0.014415      0.008983
Li	      4.23386      2.00019      6.17344         0.037289     -0.032461     -0.102587
Li	      6.19835      4.13244     10.41673         0.012640     -0.051470      0.010199
Li	      6.08987      6.16289      8.42526        -0.026972      0.012413      0.012444
Ti	      6.13165      8.19927      6.45004        -0.234038     -0.227792      0.210956
V	      8.09485      6.28315     10.42400         0.093746     -0.329803      0.253534
Fe	      8.22648      2.18318      6.36761         0.209858     -0.153519     -0.250427
Co	      4.21880      4.06515      4.07146         0.139608     -0.138070      0.092873
Co	      4.12967      4.20206      8.44720         0.123642      0.469716      0.216627
Cu	      4.13535      6.23813      6.38667        -0.041093      0.254803     -0.214917
Ni	      0.03932      2.04335      2.08165         0.013202     -0.119448      0.100299
Ni	      8.25731      4.15940      8.34390        -0.087568     -0.008881      0.119785
Ni	      6.19720      4.18512      6.27174         0.013290      0.065794     -0.105426
O	      2.07597      2.08751      2.01967         0.110478     -0.121584      0.078804
O	      4.08175      4.15402      2.12909         0.001072     -0.037868     -0.079829
O	      4.10696      2.28029      4.21149        -0.028008     -0.094772      0.042458
O	      6.09476      4.19263      4.25948         0.228881      0.054098     -0.104922
O	      6.28260      2.11578      6.29671        -0.120855     -0.094176     -0.095951
O	      8.25961      4.12980      6.27222         0.127482      0.079487     -0.084066
O	      2.08732      4.28960      4.27208        -0.140718      0.016705      0.137328
O	      4.01169      6.03554      4.18778        -0.042747      0.139203      0.138301
O	      4.06262      4.24155      6.51049        -0.057806     -0.178240     -0.297243
O	      6.14435      6.33039      6.30642         0.183289      0.273814      0.055855
O	      6.09921      4.12763      8.35711         0.702012      0.094453      0.092463
O	      8.25869      6.28311      8.56197        -0.156155     -0.004767     -0.097147
O	      2.13228      6.21944      6.12593        -0.171330     -0.026918      0.071088
O	      4.19868      8.23857      6.33652         0.048437      0.143874     -0.035401
O	      4.11950      6.06918      8.48067         0.036236      0.001337      0.137854
O	      6.30215      8.31446      8.30634        -0.732096     -0.213221     -0.400494
O	      6.36865      6.22648     10.52273        -0.150314      0.037587     -0.061901
O	      8.31232      8.14534     10.46500         0.018954      0.048608      0.061646
