# total energy = -207.36515842 eV
 
CRYSTAL
PRIMVEC
-0.019413 6.093821 6.185030 
6.359379 -0.043813 6.209332 
4.228589 4.068193 -0.018144 
PRIMCOORD
36 1
Li	      4.15842      0.01518      4.10286        -0.011232     -0.018457     -0.046742
Li	      6.33413      2.04105      4.16463        -0.006809      0.020651     -0.037651
Li	     10.54931      6.00538      8.22374        -0.022000      0.042765      0.055117
Li	      6.38273      6.03036      4.19410         0.016989      0.032103      0.002856
Li	      4.33359      4.04926      4.13582         0.054259     -0.001348      0.033631
Li	      4.19681      2.02074      6.11828        -0.016068     -0.001016     -0.085711
Li	      4.28835      6.02558      6.22464         0.040771      0.004070     -0.011013
Li	      4.14091      4.07218      8.16704        -0.045086      0.029211     -0.040131
Li	      6.40905      6.05902      8.23105        -0.049102      0.060811      0.004787
Ti	      4.27432      8.04769      8.36578         0.156660     -0.496271      0.296044
V	     10.46702      8.04406     10.20034         0.022285     -0.048824      0.359360
Fe	      6.26472      4.07215      6.02907         0.213112     -0.134557      0.118997
Co	      8.47268      2.03019      6.19668         0.053418     -0.032240     -0.134632
Co	      2.08150      6.08654      4.13528         0.016053     -0.033896      0.003377
Cu	      2.14896      4.08473      2.07022         0.067239     -0.096850      0.022731
Cu	      6.44956      7.99209      6.17105         0.226959     -0.284493     -0.034227
Ni	      6.32103      0.02734      6.20858        -0.136243      0.724925     -0.013137
Ni	      6.34467      4.06754      2.09309         0.199169      0.013490      0.002517
O	      2.23227      2.09681      1.91360        -0.038218      0.056465      0.026238
O	      4.34043      4.01515      2.00587        -0.280415     -0.041037      0.572163
O	      4.25147      2.02124      3.98591         0.031043     -0.005911     -0.352336
O	      6.36461      4.05099      4.13559        -0.023907      0.006499     -0.249740
O	      6.52458      2.08987      6.20689         0.067631      0.135080      0.051617
O	      8.41629      3.96466      6.27216         0.019191     -0.052382     -0.125518
O	      1.95370      4.13570      4.22474        -0.134231      0.083248      0.014256
O	      4.25572      6.29983      4.17299        -0.029724      0.028736     -0.049892
O	      4.37076      3.99875      6.18715        -0.388217     -0.014686      0.007116
O	      6.39501      5.95776      6.20809         0.044114      0.363292      0.002961
O	      6.24603      4.02196      8.47048         0.172379     -0.012470     -0.375507
O	      8.47926      5.94861      8.50287         0.002278      0.153935      0.047853
O	      2.03197      6.20188      6.06300        -0.014479      0.092460      0.083795
O	      4.04998      8.19451      6.11484        -0.148301     -0.804761      0.052161
O	      4.11483      6.16871      8.22064         0.097509      0.298700      0.028919
O	      6.24239      8.10316      8.09957        -0.174324      0.017644      0.231505
O	      6.31192      5.87740     10.37705         0.019062     -0.136984     -0.513016
O	      8.54749      8.01215     10.40844        -0.001766      0.052101      0.051250
