# total energy = -206.54851961 eV
 
CRYSTAL
PRIMVEC
-0.025517 6.467846 6.188481 
6.123586 -0.000380 6.162828 
4.086454 4.298441 -0.004225 
PRIMCOORD
36 1
Li	      8.12510      2.31239      6.18143         0.073353      0.075728     -0.042860
Li	      4.02207      2.14729      2.17787         0.034304     -0.056327     -0.005595
Li	      8.13025      4.27863      4.14402         0.170502     -0.064823     -0.128720
Li	      2.01733      4.29683      2.09171        -0.037235      0.065031      0.086201
Li	      2.11747      2.05281      4.01424        -0.027164      0.010846     -0.043378
Li	      4.16063      4.20586      4.04275        -0.087324     -0.013160      0.022392
Li	      6.18530      4.26436      6.07593        -0.102246      0.022439      0.117424
Li	      8.12863      6.54237     10.22251        -0.058516      0.105752     -0.109280
Li	      8.17818      8.59177      8.29876         0.019273     -0.035901      0.070310
Ti	      2.03276      4.29880      6.13082        -0.119452     -0.274608      0.106330
V	      4.06122      6.38567      6.10652         0.230355      0.113872     -0.017920
Fe	      4.13312      2.01432      6.06512        -0.256476      0.683378      0.485139
Co	     10.09901      8.62094     10.30909        -0.008856      0.011747     -0.144565
Co	      6.18544      6.44433      8.32585        -0.570743     -0.081770     -0.240788
Cu	      6.09627      0.03321      6.15663        -0.053592     -0.035459     -0.081620
Cu	      6.11561      4.35201      2.09990         0.349756     -0.282112      0.061132
Cu	      6.12286      2.18490      8.20977        -0.171061      0.226345      0.170967
Ni	      6.13925      8.67780     10.26865         0.134620     -0.214826     -0.154719
O	      8.24720      8.61263     10.32891         0.041429      0.016826      0.096909
O	      1.93355      2.05221      2.05480         0.253959      0.353644     -0.036124
O	      4.13593      4.42799      1.97028        -0.246381     -0.196627     -0.247458
O	      4.10441      2.18274      4.17596        -0.176235      0.031289     -0.120130
O	      6.16397      4.20560      3.99418        -0.002738      0.245152     -0.260999
O	      6.07223      2.31182      6.15622         0.108376      0.110056      0.269790
O	      8.23628      4.40430      6.20438         0.181008     -0.561971     -0.096548
O	      1.85644      4.32020      4.26738        -0.005496      0.019300      0.080796
O	      4.05457      6.43328      4.29464        -0.024827     -0.091196     -0.162732
O	      3.94988      4.38039      6.13999         0.107243     -0.086251     -0.052112
O	      6.09592      6.53323      6.22887         0.155519     -0.141261      0.141441
O	      6.10797      4.37712      8.42498         0.016897     -0.128122     -0.110739
O	      8.08819      6.48859      8.15589         0.602572     -0.011105     -0.366798
O	      2.03841      6.28313      6.27568        -0.307676      0.165792      0.248533
O	      4.10343      8.42362      6.10431        -0.056691     -0.016068      0.060958
O	      4.14497      6.45843      8.02661        -0.243963     -0.031896      0.155931
O	      6.07826      8.53970      8.18017        -0.018149      0.063586     -0.176815
O	      6.11430      6.56140     10.29350         0.095653      0.002699      0.425649
