# total energy = -207.41354644 eV
 
CRYSTAL
PRIMVEC
-0.030656 6.276489 6.140418 
6.222979 -0.035292 6.145337 
4.156720 4.195581 -0.031497 
PRIMCOORD
36 1
Li	      6.25004      0.08418      6.13493         0.009171     -0.012351     -0.014814
Li	      6.21810      4.20680      2.05929        -0.025686     -0.036493      0.020565
Li	      4.16567      6.25715      2.07094         0.026574      0.001602      0.051947
Li	      2.05368      4.27693      2.13260         0.003732     -0.033539      0.063561
Li	      1.98815      2.21370      4.04073        -0.037127     -0.062037      0.008200
Li	      0.11003      4.20573      3.99702        -0.019908      0.037203      0.016910
Li	      2.10221      6.09528      3.97010        -0.001339     -0.044732      0.017795
Li	      2.04246      4.11348      6.02278        -0.009720     -0.049297      0.006714
Li	      8.29695      8.25401      8.28551         0.016312      0.037101      0.003433
Ti	      4.07714      2.19146      1.98168        -0.171007      0.234192     -0.082083
V	      3.98445      6.18311      6.06748         0.072094      0.050403     -0.182844
Fe	      6.27347      4.14567      6.22074        -0.152281      0.209689     -0.098767
Co	      4.12622      0.01798      4.08089         0.020381     -0.073047     -0.006031
Co	      4.10880      4.17551      4.04520        -0.150700      0.098919      0.040675
Cu	      2.08081      8.38269      6.12864         0.049977      0.066132     -0.087227
Cu	      6.23964      8.35497     10.23253         0.041434     -0.065652     -0.125247
Cu	      8.28351      6.31437      6.15848        -0.013937      0.053679      0.092871
Cu	      6.20230      6.24016      8.20646         0.047499     -0.009869      0.021477
O	      8.17433      6.28805      8.09545         0.141095     -0.014080      0.092738
O	      6.03776      6.33898     10.20008        -0.153787     -0.131477      0.074371
O	      2.19686      2.05936      2.00393         0.260456      0.030548     -0.017549
O	      4.18793      4.09158      2.08818        -0.044233     -0.372468      0.027979
O	      4.19355      2.08527      4.07195        -0.172409     -0.014794     -0.157611
O	      6.25467      4.10302      4.12827         0.067824      0.199283      0.084180
O	      6.38409      2.13141      6.12187        -0.161468     -0.142035      0.009707
O	      8.27422      4.36370      5.95650         0.082532     -0.129300     -0.076029
O	      2.22402      4.14285      4.07306         0.147262     -0.024312      0.001662
O	      4.13982      6.09782      4.14463        -0.044617     -0.065324      0.113127
O	      4.17763      4.15023      5.98138         0.069333      0.114144     -0.070136
O	      5.96161      6.19338      6.20792        -0.024127     -0.065355     -0.095058
O	      6.20296      4.20982      8.15362         0.014176     -0.076675     -0.001439
O	      2.21404      6.14732      6.16948        -0.056306      0.009275     -0.009661
O	      4.10753      8.24682      6.17406         0.125198     -0.042928      0.176377
O	      4.13313      6.33447      8.22847        -0.078846      0.096807      0.068742
O	      6.09740      8.26823      8.24281        -0.130672      0.076193     -0.081329
O	      8.22392      8.59284     10.28361         0.253118      0.150592      0.112796
