# total energy = -209.61710549 eV
 
CRYSTAL
PRIMVEC
-0.017964 6.163877 6.507131 
6.064807 -0.012829 6.500029 
4.023437 4.087248 0.010448 
PRIMCOORD
36 1
Li	      2.05378      6.25642      8.56171        -0.026388      0.003447      0.042910
Li	      3.90214      8.12140      8.61025        -0.007243      0.018021     -0.003568
Li	      2.02089      4.12126      2.38396        -0.026351      0.023597      0.064630
Li	      8.10230      6.09976      6.56259        -0.032350      0.030609      0.078193
Li	      4.06405      8.14706      4.53401         0.009746      0.019219      0.045140
Li	      2.04523      6.11625      4.42409        -0.011599     -0.053348     -0.037901
Li	      3.96277      6.19907      6.62733         0.049845     -0.038800      0.014539
Li	      4.08074      4.17112      8.63197        -0.020713     -0.038403     -0.006480
Li	      6.02852      6.07004      8.64977        -0.024836      0.007557     -0.011786
Ti	      6.01503      4.11452      6.55132        -0.275688      0.165959      0.230352
V	      6.05006      8.10080     10.54278         0.041356     -0.111141     -0.148804
Fe	      3.97132      6.11108      2.33503         0.075229      0.203728     -0.008695
Co	      4.00807      6.17382     10.70445         0.024674      0.052897     -0.086663
Co	      6.01784      6.14543      4.37297        -0.048218      0.074098     -0.019184
Co	      6.02540      8.20399      6.53856         0.079118     -0.099523      0.135659
Cu	      4.00772      4.08105      0.06556        -0.039395     -0.055986      0.034672
Cu	      2.04091      8.16449      6.49910         0.110818     -0.043104      0.048732
Ni	      3.97730      4.12278      4.35270         0.016215     -0.026950     -0.021561
O	      3.98335      8.27657      6.57265         0.014717     -0.057235     -0.020164
O	      1.86009      2.09211      2.46020         0.166919     -0.036754      0.076617
O	      4.00032      4.26776      2.31013         0.031418     -0.147486     -0.101873
O	      4.09105      1.99259      4.29341         0.010214     -0.046572      0.058782
O	      6.09003      4.05311      4.40772         0.189869      0.019215     -0.029329
O	      6.11360      2.05510      6.30932        -0.072041      0.093494     -0.039543
O	      8.06987      4.00592      6.22618        -0.050025      0.064432     -0.183974
O	      2.00758      3.94041      4.47120        -0.149889      0.089464      0.005875
O	      4.11946      6.15362      4.35944        -0.003626      0.132433      0.080600
O	      4.11483      4.06281      6.44260         0.240917      0.046158      0.107313
O	      6.08795      6.03264      6.38891        -0.022310     -0.143195      0.028489
O	      6.11515      3.96982      8.42362        -0.004801      0.086324     -0.280735
O	      8.23966      6.14163      8.72829        -0.179810     -0.018593     -0.023936
O	      1.93429      6.19471      6.50636         0.055231     -0.097000     -0.021487
O	      4.02145      6.16674      8.82615        -0.013859     -0.021684      0.054787
O	      5.99094      8.24749      8.79708        -0.005260     -0.051852     -0.031587
O	      6.00121      6.30976     10.68178        -0.094985      0.013143     -0.040517
O	      7.85494      8.30331     10.69359        -0.006898     -0.056166      0.010498
