# total energy = -208.30309846 eV
 
CRYSTAL
PRIMVEC
-0.029859 6.459016 6.148868 
6.081083 -0.001181 6.119548 
4.055328 4.288453 -0.001965 
PRIMCOORD
36 1
Li	      4.06433      4.29534      0.04567        -0.016107      0.076439      0.044773
Li	      5.98427      4.36593      2.05312        -0.072117      0.173917     -0.009915
Li	      6.03201      2.26901      4.10397         0.017780      0.042278      0.111156
Li	      4.06650      6.32262      2.03939         0.129439     -0.116757     -0.091356
Li	      2.09939      4.24542      2.03279         0.070584     -0.165650     -0.061690
Li	      4.01224      4.33698      4.00512         0.029072      0.029474     -0.074908
Li	      6.12069      4.20252      6.07241         0.099863     -0.134780     -0.066022
Li	      4.08623      8.53967      4.14834        -0.019777      0.004567      0.041392
Li	      3.95249      6.54617      6.10053         0.001002      0.077872     -0.006585
Ti	      6.07376      6.35164      8.19484        -0.045603      0.240103      0.134677
V	      4.06698      4.29614      8.16868         0.042229      0.262658      0.435602
Fe	      5.96918      6.34235      4.12008        -0.000140     -0.094654     -0.498923
Co	      8.06553      2.13619      6.10025         0.016852      0.161467     -0.011835
Co	      4.18295      2.06895      6.06145         0.249911     -0.087435      0.179261
Co	      2.05743      6.43700      4.12775         0.178476     -0.102834      0.243626
Cu	      4.01509      2.34632      2.05532        -0.129375      0.198369      0.018121
Cu	      8.09068      4.30988      4.12306         0.078187     -0.030682      0.051234
Cu	      1.94169      4.35921      6.12014        -0.228497      0.157497     -0.014986
O	      3.91572      8.59206      6.25729         0.417506      0.127712      0.353215
O	      2.06980      2.18247      1.99970        -0.291277     -0.140587      0.779764
O	      4.04807      4.26225      2.02941         0.138222      0.212060      0.004515
O	      3.93882      2.27105      4.03479         0.121922     -0.107715     -0.099679
O	      6.13074      4.41248      4.06139        -0.058661     -0.037861      0.054597
O	      6.14991      2.15874      6.11297        -0.833690      0.023961      0.009776
O	      8.12225      4.13633      6.02983         0.087538      0.418457     -0.076630
O	      1.99626      4.47927      4.24520        -0.054429     -0.169473     -0.310233
O	      4.05293      6.45316      4.10669         0.426418      0.112321     -0.018750
O	      4.00508      4.20165      6.36013         0.148939     -0.083510     -0.022536
O	      6.16273      6.39679      6.16670         0.048688     -0.064765      0.314574
O	      6.00516      4.43076      8.18502        -0.649295     -0.043673     -0.029577
O	      8.07803      6.50063      8.24446        -0.123097      0.415956     -0.282088
O	      1.99964      6.65811      6.02007         0.038554     -0.416640      0.040353
O	      4.09929      6.27034      8.24501         0.014618     -0.657658     -0.168063
O	      6.04824      8.46176      8.09548         0.837451     -0.399234      0.343983
O	      6.13412      6.46665     10.09272        -0.637322     -0.065770     -0.407487
O	      8.09011      8.38533     10.14771        -0.033862      0.184570     -0.909356
