# total energy = -209.13879706 eV
 
CRYSTAL
PRIMVEC
0.014377 6.240514 6.287717 
6.278692 -0.050713 6.352407 
4.121208 4.138274 0.030755 
PRIMCOORD
36 1
Li	      2.01676      0.06651      2.09737        -0.067412     -0.013650     -0.027417
Li	      4.12062      6.13855      2.34346        -0.000712      0.027212     -0.033756
Li	      2.13428      4.17795      2.31838        -0.000258     -0.010788      0.043883
Li	      2.01464      2.16620      4.15103        -0.043175      0.082603      0.012305
Li	      4.03846      4.24573      4.11967        -0.052287      0.019706     -0.064359
Li	      8.28154      6.24396      6.45856         0.073202     -0.008710      0.029769
Li	      0.10614      4.08051      4.16879         0.029944     -0.098948      0.006864
Li	      2.17634      6.14616      4.14033         0.090931     -0.051805     -0.006356
Li	      2.15990      4.10117      6.12159         0.031687     -0.065208      0.038619
Ti	      6.20182      4.22108      6.40082        -0.087968     -0.103848      0.314291
V	      6.24001      8.26015     10.48497         0.432445     -0.013422      0.368123
Fe	      4.00296      2.14373      2.12156         0.259222     -0.164181      0.102753
Co	      2.06520      2.03052      0.07415        -0.446422      0.035279     -0.032536
Co	      8.30869     10.31951     10.53253        -0.089962      0.019701     -0.074215
Co	      4.22445      4.10701      8.42662        -0.248808     -0.087322      0.078663
Ni	      4.16547     10.34554      6.33798        -0.001274      0.111872      0.049929
Ni	      4.12462      6.20521      6.24046        -0.046601      0.024673      0.058773
Ni	      6.33506      6.15581      8.47328        -0.010608      0.152596     -0.054836
O	      2.07942      4.16551      4.23950        -0.015521     -0.018741      0.005776
O	      2.09597      2.07498      2.08953        -0.108773     -0.004571      0.022400
O	      4.15767      4.03813      2.08157        -0.024142      0.178918      0.114729
O	      4.29272      1.89876      4.16782        -0.302383     -0.011835     -0.076677
O	      6.31784      3.98843      4.35518         0.051788     -0.265009     -0.118051
O	      6.36036      2.04365      6.14804         0.069165      0.194474      0.743532
O	      8.27484      3.95381      6.21410        -0.106722     -0.021271     -0.125097
O	      4.16440      6.19950      4.29329         0.033956     -0.001947     -0.118257
O	      4.26495      4.12710      6.46186         0.220437     -0.038788     -0.042061
O	      6.26168      6.07505      6.36874         0.039807     -0.247721     -0.133859
O	      6.17692      4.09097      8.32796         0.038214     -0.020441     -0.213034
O	      8.30117      6.34660      8.46527         0.146904      0.092840      0.026493
O	      2.08035      6.43519      6.26898         0.049891      0.036843     -0.016988
O	      4.03526      8.27250      6.41116         0.075255     -0.014595     -0.047665
O	      4.25632      6.17011      8.52735        -0.071017     -0.065824      0.115189
O	      6.34890      8.27502      8.59455         0.059542      0.092509     -0.866336
O	      6.11590      6.28363     10.55909         0.101099      0.322047      0.032076
O	      8.25869      8.39409     10.41771        -0.079446     -0.062645     -0.112666
