# total energy = -200.83226214 eV
 
CRYSTAL
PRIMVEC
0.005880 6.273957 6.164480 
6.220072 -0.010970 6.181232 
4.137669 4.184534 0.001904 
PRIMCOORD
36 1
Li	      2.17419      6.26219      8.23367         0.006237     -0.028237      0.004933
Li	      4.14291      8.23462      8.27587         0.021227     -0.039332     -0.029106
Li	      8.29505      4.16960      8.18249        -0.021986     -0.007777     -0.050207
Li	      8.19016      6.32717      6.18364        -0.017019      0.021914      0.016834
Li	      6.23122      4.29315      6.14752         0.041359      0.068317      0.089406
Li	      8.29168      6.30161     10.28577         0.002327     -0.010391     -0.002763
Li	      4.17496      6.20820      6.28661        -0.022530      0.019356      0.037042
Li	      4.05752      4.22056      8.14023         0.007835      0.031814     -0.017375
Li	      6.23569      6.36722      8.13454        -0.022429      0.008233      0.033981
Ti	     10.23865      6.19049      8.16797        -0.157716     -0.116455     -0.034963
V	      6.25578      4.19122     10.13901         0.060191     -0.009150      0.148623
Fe	      4.16444     10.39560      6.21754         0.005081     -0.009983     -0.002560
Cu	      6.15403      2.19070      4.01366         0.023535     -0.022857      0.263684
Ni	      2.14189      8.31034      6.24572         0.042126     -0.085160      0.023894
Ni	      4.14505      6.27348     10.26856         0.027662     -0.034909      0.075594
Ni	      6.23021      8.35196      6.25207        -0.066341      0.044140      0.038491
Ni	      2.10802      2.07090      4.11715        -0.070472     -0.008694     -0.044157
Ni	      4.12461      4.15226      4.15474        -0.009347      0.092967     -0.215630
O	      4.16232      6.24460      8.39280         0.022871      0.026738     -0.189699
O	      6.21715      8.36008      8.30308        -0.030074      0.003098     -0.059247
O	      1.94568      2.12241      2.08774        -0.016929     -0.035386      0.015724
O	      4.08495      4.28047      2.07975        -0.017526      0.257408     -0.052382
O	      4.15158      2.06912      4.11425         0.083625     -0.025830      0.011194
O	      6.21604      4.20911      4.17129        -0.025140     -0.168878     -0.009429
O	      6.29853      1.99550      6.18687        -0.118455      0.049000      0.046991
O	      8.39649      4.09685      6.06712        -0.084915      0.043357      0.132297
O	      1.91604      4.15520      4.12977        -0.064414      0.088926     -0.115842
O	      4.15817      6.40839      4.02241        -0.077395      0.085255     -0.096886
O	      3.98985      4.22568      6.08780         0.202241     -0.009628      0.302046
O	      6.20452      6.40700      6.09774         0.002808     -0.134208      0.141504
O	      6.22730      4.13089      8.36165         0.006230     -0.046064     -0.162310
O	      8.42757      6.28939      8.21709         0.222915     -0.003814     -0.008009
O	      1.99000      6.18298      6.19261         0.089260      0.064299     -0.032794
O	      4.22101      8.37843      6.09769        -0.033180     -0.072340     -0.059839
O	      6.23376      6.07306     10.32126         0.043108      0.017941     -0.080486
O	      8.51116      8.35964     10.38863        -0.054768     -0.053673     -0.118553
