# total energy = -201.53875409 eV
 
CRYSTAL
PRIMVEC
0.025716 6.347429 6.285185 
6.152201 0.016139 6.295404 
4.113221 4.250259 -0.000975 
PRIMCOORD
36 1
Li	      0.05649      0.14961      0.09646        -0.019198      0.030446     -0.024575
Li	      6.14430      2.13449      4.30786         0.010780     -0.029193      0.096781
Li	      6.04396      2.20778      8.31448        -0.003041      0.069232      0.031084
Li	      8.16050      4.41040      8.43393         0.026264      0.005974     -0.042487
Li	      8.33005      6.42674      6.45478         0.025302      0.002557     -0.021333
Li	      6.14567      4.12328      6.44223         0.009440      0.003518     -0.002830
Li	      6.21123      4.28857     10.28410        -0.130850      0.047582      0.002519
Li	      8.19266      6.32413     10.33590        -0.011977      0.033034      0.022815
Li	      8.32442      8.36324      8.40957        -0.032060      0.066337      0.097865
Ti	      4.09271      6.27926      6.18034         0.101572      0.119155     -0.215703
V	      8.31550      4.16075      4.43251         0.209278     -0.114260      0.016693
Fe	      2.06632      2.17547      4.13001         0.006927     -0.167058     -0.026391
Cu	      4.14086      8.45212      8.38899        -0.117662     -0.073656     -0.008461
Cu	      4.14244      4.24336      4.15848         0.015812      0.036643      0.034662
Ni	      1.99564      2.11237      0.05758         0.025042     -0.001779     -0.032027
Ni	      6.19927     10.53048      8.39483         0.136268     -0.000267     -0.045786
Ni	      6.12856      8.49344      6.24886        -0.087269     -0.008864     -0.011136
Ni	      6.22138      6.34419      8.35276        -0.037801      0.136040     -0.002602
O	      8.10867      6.40993      8.39474         0.181126     -0.014565      0.002759
O	      2.08642      2.05120      2.12417         0.107826     -0.037104     -0.052757
O	      4.17382      4.08648      2.22352        -0.193650     -0.022953      0.258501
O	      4.06621      1.86833      4.12122         0.017096     -0.077064     -0.018451
O	      6.27005      4.33522      4.14200        -0.194198     -0.053033      0.069266
O	      6.25266      2.13377      6.36503        -0.418196      0.002019      0.009271
O	      8.25237      4.25516      6.17234         0.003441      0.052194      0.013437
O	      2.14915      4.15263      4.21642         0.237633      0.187373     -0.147057
O	      4.15846      6.51020      4.27711        -0.060514      0.011002      0.205954
O	      4.09377      4.36291      6.17891         0.084424      0.037315     -0.256819
O	      6.07431      6.42565      6.17023        -0.219566     -0.057101      0.097814
O	      6.18552      4.46167      8.35489         0.049766     -0.256595      0.025715
O	      2.13411      6.35064      6.30788         0.149255     -0.045451     -0.031343
O	      4.03008      8.37722      6.39771         0.176404     -0.111676     -0.074185
O	      4.19596      6.36779      8.28944        -0.040969      0.014456     -0.042914
O	      6.10601      8.38176      8.29008         0.063353      0.058342      0.052418
O	      5.99421      6.37223     10.46643        -0.102240     -0.024553      0.109889
O	      8.17984      8.72026     10.52700         0.032181      0.181956     -0.090587
