# total energy = -202.56043321 eV
 
CRYSTAL
PRIMVEC
-0.010963 6.280202 6.172183 
6.235440 0.009561 6.151996 
4.175357 4.191390 -0.011585 
PRIMCOORD
36 1
Li	      2.11217      8.34851      6.21922         0.022471     -0.036142      0.042327
Li	      2.09999      6.25023      8.16358         0.043275     -0.046693     -0.022331
Li	      6.17886      8.35689     10.20301        -0.023412      0.037109     -0.067384
Li	      6.22343      6.37519      4.16632         0.067586     -0.006287     -0.063717
Li	      6.13345      4.26281      6.21858        -0.022704      0.004582      0.001647
Li	      2.17376      6.22630      4.09194         0.022063      0.006305     -0.000129
Li	      6.29716      8.31013      6.15248         0.009030      0.024646      0.080754
Li	      4.15195      6.22344      6.09013        -0.034086     -0.009016      0.020710
Li	      4.12597      4.16522      8.11684        -0.122711      0.037467      0.023444
Ti	      0.19698      6.31178      6.09850         0.690435      0.008132      0.023064
V	      8.09283      4.07729      4.13694        -0.315266      0.245784     -0.249944
Fe	      4.15184      8.36379      8.21474        -0.002251     -0.057253     -0.017073
Cu	      0.03085      2.12621      2.08071         0.116573      0.000146     -0.291822
Cu	      8.25767      6.35989      6.15252         0.170672     -0.017020     -0.464053
Cu	      0.08547      4.12781      4.13879         0.154854      0.082798      0.437279
Ni	      8.30690      4.21608      8.20962         0.200091     -0.233467     -0.061560
Ni	      4.13979      4.21101      4.14470         0.273079      0.036702     -0.094335
Ni	      6.23285      6.30329      8.20218        -0.139156      0.219172      0.036935
O	      6.28738      4.21756      8.34213        -0.210268     -0.124781     -0.363522
O	      2.26345      2.14276      2.03108        -0.938641      0.043599     -0.005365
O	      4.16931      4.12750      2.00047         0.042835      0.283417      0.045143
O	      4.16778      1.99475      4.09591        -0.070056     -0.015043      0.259358
O	      6.33764      4.16794      4.10925         0.188297      0.010732      0.045678
O	      6.19998      1.98395      6.27644        -0.053623     -0.127137     -0.190057
O	      8.36348      4.28053      5.98836         0.023206     -0.052767      0.029773
O	      2.16192      4.22734      4.07557        -0.585903     -0.081752      0.153149
O	      4.18550      6.31025      3.98031         0.031639      0.050722      0.374592
O	      4.16217      4.11854      6.10404         0.044634      0.173894     -0.011270
O	      6.29602      6.26426      6.20830        -0.151391     -0.067616      0.038442
O	      8.28037      6.26889      8.10212         0.219165      0.074368      0.467807
O	      2.00383      6.33474      6.13509        -0.652291      0.020759     -0.125472
O	      4.14481      8.49771      6.17008         0.025114      0.102093     -0.188187
O	      4.14815      6.35602      8.41603        -0.006630     -0.262761      0.117770
O	      6.02568      8.34150      8.22906         0.779526     -0.066559      0.015268
O	      6.15595      6.24407     10.34273        -0.016842     -0.014671     -0.034977
O	      8.27118      8.61217     10.26508         0.220683     -0.243462      0.038059
