# total energy = -201.67684849 eV
 
CRYSTAL
PRIMVEC
0.017643 6.218672 6.233687 
6.359929 0.007978 6.243367 
4.236167 4.148637 0.008914 
PRIMCOORD
36 1
Li	      6.30525      0.03430      6.21057        -0.081777     -0.004882     -0.020452
Li	      8.39739      8.36914     12.30262         0.004845      0.056009     -0.017616
Li	      6.31057      4.08390      2.11764         0.015147     -0.004874     -0.004855
Li	      8.60906     10.20994     10.39398         0.082300     -0.065961      0.039222
Li	      6.54400      8.23056     10.41497         0.044690     -0.039689     -0.066438
Li	      4.25205      4.18638      4.12760         0.011095     -0.008546     -0.015440
Li	      4.35930      2.05215      6.25338         0.027706     -0.062125      0.046480
Li	     10.46313      8.36497     10.44239        -0.056929      0.049603     -0.003802
Li	      8.42743      8.37871      8.46212        -0.026125      0.008953      0.036135
Ti	      4.16395      6.23044      6.22639        -0.123646      0.225914      0.145487
V	      2.29831      2.00396      4.06969        -0.036275      0.110065      0.018929
Fe	      2.15422      4.14449      6.25494        -0.005084     -0.091257      0.032407
Cu	     10.55242      6.21613      8.31959        -0.040683      0.114176     -0.041177
Cu	      8.49341      4.18657      8.29514         0.089833     -0.008738     -0.029048
Cu	      6.40669      4.09069      6.26824        -0.233913      0.184430     -0.415535
Cu	      6.36483      6.23818      8.40478         0.108188     -0.308365      0.097986
Ni	      8.42021      6.31728     10.39387        -0.019703     -0.032177     -0.042859
Ni	      4.30832      8.33752      8.29379        -0.028530      0.094124      0.077932
O	      8.36644      6.13859      8.36609        -0.112759      0.097577     -0.140182
O	      6.41149      6.22166     10.34237        -0.127921      0.007496      0.183712
O	      8.49838      8.27976     10.38017        -0.034351      0.155105      0.049634
O	      2.17678      2.09502      2.26221         0.001367     -0.130227     -0.046763
O	      4.10910      4.19735      2.05440         0.175480     -0.040552      0.035650
O	      4.05241      2.07596      4.16742         0.211271      0.034002      0.101649
O	      6.34242      4.35414      4.22644        -0.068540     -0.111309      0.051662
O	      6.34472      2.16522      6.35769        -0.061923     -0.257396      0.158175
O	      8.36494      4.14245      6.33898         0.244761      0.018631     -0.106274
O	      2.13818      3.97391      4.21883         0.062119     -0.006667      0.144852
O	      4.34316      6.23587      4.20072        -0.017377     -0.041874     -0.018437
O	      4.22904      4.27515      6.25102        -0.018426     -0.136127     -0.034004
O	      6.28923      6.22499      6.13823         0.073732      0.075885     -0.065937
O	      6.47797      4.13812      8.24174        -0.165950     -0.018941      0.219418
O	      2.25518      6.15830      6.22316         0.147781      0.020030      0.124616
O	      4.37269      8.20846      6.25724        -0.017323     -0.120079     -0.101519
O	      4.32390      6.27726      8.17236        -0.066801     -0.095951     -0.201662
O	      6.33624      8.23461      8.26489         0.043719      0.333739     -0.191948
