# total energy = -202.60148160 eV
 
CRYSTAL
PRIMVEC
0.040912 6.660583 6.090037 
6.171214 0.079271 6.053411 
4.154339 4.459911 0.011849 
PRIMCOORD
36 1
Li	      4.18049     10.92795      6.16379         0.004993     -0.067519      0.064311
Li	      4.17537      8.70321      8.04376        -0.019727     -0.005525     -0.090755
Li	      8.29975     11.05953     10.16403         0.064172      0.080400     -0.036819
Li	      2.12532      2.33952      4.14066        -0.107878      0.010618     -0.041413
Li	      6.25349      4.61899      6.01487        -0.063934      0.023766      0.119696
Li	      0.07297      4.58158      4.17690         0.040316     -0.168640     -0.015961
Li	      2.04168      6.61005      4.21981         0.086418     -0.022207     -0.050776
Li	      6.18050      8.87984      6.09607        -0.107279      0.019728      0.009553
Li	      4.15382      6.80554      6.08139         0.017136      0.021510     -0.102537
Ti	      6.25084      8.87185     10.15843         0.099202     -0.167630     -0.091757
V	      4.17433      6.69499      2.19467        -0.521217      0.008677      0.345205
Fe	      4.08419      4.43326      4.14152        -0.071873      0.248340     -0.335550
Cu	      2.20188      8.85450      6.09462        -0.110907      0.098523     -0.009200
Cu	      2.13699      6.64831      8.05821        -0.171101      0.132139      0.163782
Cu	      8.20738      4.49932      8.07436        -0.087578     -0.064109      0.130958
Cu	      8.26503      6.68303      6.03663         0.093405     -0.079510     -0.076644
Cu	      4.20767      4.59005      7.99102         0.076878     -0.064193      0.008787
Cu	      6.25077      6.78837      8.05967         0.121828     -0.020910      0.043940
O	      4.13438      8.90722      6.12408         0.281565      0.036945      0.048454
O	      4.37953      6.52829      8.07407        -0.048039      0.175504      0.079574
O	      6.30424      9.14060      8.15687        -0.286049      0.115125      0.111071
O	      8.20036      9.01019     10.18840        -0.119183      0.019414     -0.263463
O	      1.87194      2.01050      2.01191         0.732057     -0.346042     -0.068796
O	      3.92348      4.80084      2.07226         0.008076     -0.738000     -0.217440
O	      4.17699      2.34678      4.03225         0.117843     -0.041761     -0.026736
O	      6.08427      4.33165      3.93220         0.321883     -0.063657     -0.255963
O	      6.10421      2.24700      6.01682        -0.008874      0.028459     -0.238102
O	      8.25489      4.28651      6.17740        -0.083682      0.046944      0.043883
O	      2.14252      4.48236      3.95389        -0.399112     -0.024478     -0.236752
O	      4.16432      6.64409      3.95113        -0.049080     -0.116082      0.159547
O	      4.14323      4.60376      5.96775         0.087475      0.058068      0.583302
O	      6.35665      6.68201      6.19674        -0.003388      0.018483     -0.031614
O	      6.26682      4.19378      8.07936         0.472568      0.559811     -0.081758
O	      8.36278      7.04960      7.99571        -0.358042      0.041028      0.022684
O	      2.09591      6.84254      6.17163        -0.009914      0.008514      0.269096
O	      6.22483      6.95135      9.95170         0.001041      0.238268      0.068192
