# total energy = -91.45391342 eV
 
CRYSTAL
PRIMVEC
1.980592 3.973371 1.980637 
2.024228 -4.016845 2.024232 
4.009208 -0.000025 -4.009272 
PRIMCOORD
16 1
Li	      5.77099     -0.01710     -1.90786         0.081598      0.194651     -0.861286
Li	      3.88204      1.89611      1.89113        -0.126032      0.422664      0.170642
Li	      3.88666     -0.01852     -0.02139        -0.511293      0.228512     -0.188625
Li	      3.85843     -1.93570     -1.90123        -0.214621     -0.048122     -0.241887
Mn	      7.72261     -0.04202      0.00459         5.162230     -0.156084      0.179959
Mn	      3.88703     -1.95874      1.92815         0.482187     -3.301848      1.999004
Ni	      5.81215     -0.04182      1.91530         0.995994      0.149121      2.259328
Ni	      5.79783     -1.95866      0.01795         1.658635     -1.796164     -0.606666
O	      5.93741     -0.01980      0.00068        -1.204712      1.148748     -0.994837
O	      3.71847      1.89606     -0.02093         0.988900      0.774049     -0.164387
O	      3.86201     -0.02117     -2.07543        -0.511896      0.040729     -1.059981
O	      3.86820     -0.15033      2.03358        -1.008331      1.837880      0.708910
O	      3.88290     -1.93696      0.14281        -0.852939     -0.283339     -2.339986
O	      1.91878      2.02634      1.81374        -1.098826      1.138509      1.166308
O	      1.82823      0.10949     -0.00635        -1.471306      0.084538     -0.385866
O	      2.04749     -2.06795      1.94313        -2.369590     -0.433847      0.359368
