# total energy = -202.12787627 eV
 
CRYSTAL
PRIMVEC
-0.005451 6.180114 6.232337 
6.183099 -0.009928 6.236809 
4.102407 4.103429 0.013103 
PRIMCOORD
36 1
Li	      6.17965      0.07127      6.24247        -0.006607      0.058627     -0.039739
Li	      8.17491      2.02290      6.26898        -0.063006      0.025088     -0.015725
Li	      2.08158      6.17706      8.28824         0.062387     -0.044142     -0.047648
Li	      6.16489      8.20151     10.38700        -0.012798     -0.058971     -0.062159
Li	      6.14914      6.16874      4.16804        -0.017285      0.034444      0.029230
Li	      4.18836      2.05613      6.27029         0.080092     -0.007643      0.036634
Li	      6.13700      4.07969      6.28266        -0.008895     -0.057125      0.069632
Li	      4.13392      4.15148      8.30084        -0.025659      0.114250      0.006214
Li	      6.14050      6.15354      8.31508        -0.031373     -0.010062      0.042773
Ti	      6.19187      8.13114      6.36152         0.061895     -0.112295      0.204755
V	      8.09260      4.12830      4.24463         0.033680      0.011146     -0.099864
Fe	      8.13131      6.22234     10.40649         0.071857      0.115127     -0.077905
Ni	      6.20240      2.03736      8.27855         0.059899     -0.023440      0.145996
Ni	      6.17617      4.11758     10.38053        -0.035629      0.055951      0.010078
Ni	      4.08369      8.21948      8.30219         0.001863      0.077384     -0.012999
Ni	      8.23548      4.09974      8.30194         0.004415      0.014940     -0.003106
Ni	      4.15680      4.06859      4.17343         0.044193     -0.082260      0.044242
Ni	      4.11977      6.15466      6.29906         0.008788     -0.050060     -0.048713
O	      2.05131      2.22497      2.05413         0.063532     -0.190622      0.060683
O	      3.97812      4.11078      2.13210         0.090937     -0.046060     -0.087478
O	      4.14598      1.91385      4.10773        -0.051040     -0.000444      0.138047
O	      6.29479      4.07931      4.16704        -0.095333      0.031328     -0.044157
O	      6.17836      2.04860      6.43897         0.033338     -0.019480     -0.318945
O	      8.23651      4.11871      6.01479         0.014718     -0.052418      0.011223
O	      2.06252      4.18635      4.20262         0.029260     -0.185940      0.147175
O	      4.03652      6.15370      4.05258         0.102084     -0.011792      0.103211
O	      4.04502      4.14220      6.20023        -0.058541     -0.114740      0.153685
O	      6.13203      6.25438      6.23509         0.102044      0.119246      0.003212
O	      6.34202      3.99414      8.33576        -0.109367      0.287790     -0.039057
O	      8.30231      6.01384      8.37905        -0.207249      0.096040     -0.068387
O	      2.10664      6.10880      6.14359        -0.113809      0.027268      0.157805
O	      4.18080      8.18046      6.23584         0.009486      0.100378     -0.086531
O	      4.10447      6.21542      8.44821        -0.010906     -0.163968     -0.025330
O	      6.11213      8.26139      8.21240         0.164755     -0.022609     -0.217104
O	      6.15276      6.15471     10.37963        -0.084950      0.131533     -0.008084
O	      8.23429      8.31698     10.35952        -0.106778     -0.046468     -0.061665
