# total energy = -216.78079951 eV
 
CRYSTAL
PRIMVEC
-0.003173 6.203521 6.216444 
6.251998 -0.006256 6.219565 
4.165656 4.135241 -0.001768 
PRIMCOORD
36 1
Li	      8.30180      2.19018      6.15967        -0.011217      0.007739     -0.017693
Li	      4.18768      8.31315      8.26323         0.044231      0.007869      0.017762
Li	      6.19348      2.10640      8.20794        -0.036254      0.009830     -0.052357
Li	      8.33641      4.08593      8.17897        -0.014620     -0.033281     -0.002721
Li	      6.22124      6.24663      4.22868        -0.020701      0.063088      0.077769
Li	      4.26348      1.95901      6.20635         0.028938      0.032641      0.000102
Li	      6.37252      4.02603      6.19981         0.023423     -0.045024      0.059028
Li	      2.10443      6.18067      4.15972         0.049466     -0.041311     -0.072196
Li	      6.16187      8.25977      6.13467        -0.010478     -0.050516     -0.022564
Ti	      6.40208      6.18329      8.21597         0.389401      0.042256     -0.549496
V	      2.00954      0.23503      2.05611        -0.110607      0.336847     -0.082838
V	      4.02500      4.12306      4.24926        -0.199157      0.225402     -0.109785
Cr	      4.17375      4.13681      8.26310        -0.026214     -0.122651     -0.082995
Co	      4.20264      8.22175      4.13693         0.287765     -0.529232      0.197577
Cu	      6.28214      2.03213      4.25557         0.104898     -0.134501     -0.283942
Ni	     10.33014      4.11622      6.20441         0.110045     -0.078060      0.136868
Ni	      8.30371      4.14907      4.23452        -0.012306      0.159446      0.009466
Ni	      4.15109      6.25207      6.19717        -0.007983     -0.034736     -0.025922
O	      2.12356      1.95081      2.05908        -0.059739     -0.248650     -0.004982
O	      4.33063      4.14051      2.14838         0.129214      0.017615      0.006251
O	      4.13113      2.28354      4.15291         0.014151     -0.116897     -0.020728
O	      6.21211      4.16485      3.98753        -0.054260     -0.067727     -0.052520
O	      6.29386      1.98499      6.13743         0.045121      0.050243      0.258362
O	      8.34280      4.13733      6.19625        -0.104982      0.022250      0.092181
O	      2.10032      4.13426      4.09405         0.529408      0.014996      0.035269
O	      4.15146      6.10878      4.15411         0.041770     -0.745524     -0.100520
O	      4.13869      4.20273      6.20182        -0.008867     -0.162092      0.184291
O	      6.17159      6.20642      6.39805         0.142773      0.011652      0.452970
O	      6.20014      4.20105      8.38218        -0.077318      0.195269     -0.366585
O	      8.26400      6.26828      8.26605        -0.460748      0.051210     -0.034810
O	      2.06636      6.11924      6.49058        -0.037992      0.053919      0.161670
O	      4.16347      8.25446      6.03813        -0.016919      0.174453      0.401545
O	      4.05443      6.16853      8.33814         0.046703     -0.061095      0.034832
O	      6.31795      8.18842      8.46265         0.043341     -0.115981     -0.206550
O	      6.21698      6.04480     10.29695         0.107150      1.165764     -0.073458
O	      8.49937      8.26319     10.24577        -0.867437     -0.055209      0.036720
