# total energy = -216.71216357 eV
 
CRYSTAL
PRIMVEC
0.020508 6.296539 6.089433 
6.502814 0.016204 6.093922 
4.353191 4.218381 -0.007646 
PRIMCOORD
36 1
Li	      0.17672      6.20630      6.10973         0.037279     -0.065905      0.086842
Li	      2.33837      8.28259      6.08890         0.020985     -0.018187      0.014181
Li	      4.25965      6.16462      1.99051         0.026236     -0.077195      0.055579
Li	      8.75818      4.34499      8.04437         0.043409     -0.018413     -0.005273
Li	      4.33877      4.25224      4.07586         0.048549      0.091033     -0.086671
Li	      4.35699      8.41352      4.24540        -0.012922     -0.055877     -0.021361
Li	      8.65294      6.38752     10.17531        -0.002774      0.030634      0.016688
Li	      6.33862      8.55061      6.11227        -0.055365      0.047916     -0.020433
Li	      4.18770      6.36203      6.10249        -0.041611      0.031205     -0.054993
Ti	      8.81527     10.41375     10.18121         0.078777     -0.309631      0.133724
V	      2.04317      2.34750      4.03795        -0.415370     -0.058198      0.259195
V	      6.50263      4.15621      6.18308        -0.027888      0.155275      0.074731
Cr	      4.32724      2.15916      1.98230        -0.393353     -0.222178     -0.162291
Co	      6.48160     10.50666      8.05164        -0.229375     -0.076803      0.505677
Cu	      6.51027      2.09782      4.08559         0.052252      0.035308      0.102523
Cu	      4.37565      4.17710      8.08313         0.087529      0.098705      0.034050
Ni	      4.35866      2.12632      6.08924         0.013924     -0.044301     -0.064256
Ni	      6.61585      6.36281      8.07334        -0.017578     -0.113778     -0.042481
O	      2.27987      2.09864      2.19643        -0.128085     -0.658474     -0.428126
O	      4.48385      4.11538      2.03626         0.490806      0.383758      0.095492
O	      4.07480      1.98376      4.03562        -0.130058     -0.032659     -0.055242
O	      6.60828      4.17520      4.03324         0.048918     -0.002586     -0.076823
O	      6.43091      2.23786      6.03593         0.108779     -0.204079     -0.018759
O	      8.55422      4.21853      5.97177         0.032093     -0.027207     -0.149289
O	      2.18319      4.07107      4.06621         0.051962      0.072466      0.061595
O	      4.64769      6.30751      4.01656         0.283394      0.052448      0.011645
O	      4.55486      4.18898      6.10595        -0.114716      0.078727     -0.125360
O	      6.59092      6.22448      5.92906         0.007434     -0.002479     -0.032894
O	      6.70756      4.31407      7.94480         0.154912     -0.021030     -0.086589
O	      8.64838      6.42409      8.11167         0.037659     -0.091772      0.141659
O	      2.15220      6.29509      6.23641         0.160265      0.020717     -0.161797
O	      4.34041      8.38876      6.15495         0.053388      0.034295      0.083922
O	      4.27329      6.31101      8.17171        -0.380164      0.012009     -0.064804
O	      6.32783      8.36027      8.21344         0.209502      0.814934     -0.183924
O	      6.36126      6.39361     10.13016        -0.147754     -0.019344      0.053923
O	      8.81372      8.52969     10.05196         0.048959      0.160667      0.109936
