# total energy = -217.24355287 eV
 
CRYSTAL
PRIMVEC
0.078919 6.141950 6.472942 
6.188483 0.078997 6.473473 
4.174861 4.145727 0.002846 
PRIMCOORD
36 1
Li	      8.31617      8.26796     12.85672        -0.005962     -0.007399      0.047125
Li	      6.24993      4.14988      2.28815         0.017100     -0.014327      0.008032
Li	      6.28954      2.17398      4.42120        -0.027443     -0.027665      0.038861
Li	      4.19413      6.22386      2.22681         0.001691      0.021411      0.007243
Li	      6.18280      6.13770      4.36438         0.000292     -0.002444      0.041830
Li	      6.23618      4.09916      6.38994         0.005744      0.003315      0.018950
Li	      8.39503      6.33564     10.77663        -0.017307     -0.027914     -0.011334
Li	      4.18672      6.21920      6.36595        -0.012088     -0.003876     -0.006695
Li	      8.38930      8.31445      8.75041        -0.015307     -0.009615     -0.020553
Ti	      4.23507      8.16755      8.71655        -0.079631     -0.267305     -0.015172
V	      2.08355      4.12548      2.21472        -0.150467      0.095468     -0.088528
V	      2.10893      4.22925      6.38733         0.069507      0.059513      0.119911
Cr	      6.26001      6.19069      8.59232        -0.021791     -0.063044     -0.007809
Co	      4.21129      2.11911      6.44914        -0.173271      0.159640      0.083611
Cu	      6.20002      0.12538      6.45999         0.199324     -0.012602      0.020160
Cu	      8.31032     10.26014     10.78528        -0.051743      0.103819     -0.056099
Cu	      4.29719      4.22861      4.34081         0.025641      0.093775      0.038067
Cu	     10.31567      8.25014     10.77908         0.133471     -0.075968      0.003651
O	      8.38693      8.33872     10.82475        -0.041287      0.012621     -0.003842
O	      2.18641      2.23999      2.11742         0.147870      0.010726      0.060269
O	      4.10112      4.08510      2.41301         0.017592     -0.112005     -0.105950
O	      4.14810      1.94781      4.19257        -0.000634     -0.138168     -0.128557
O	      6.32423      4.16401      4.32547         0.186460     -0.074251      0.020680
O	      6.06564      2.05406      6.45756         0.077051      0.030878     -0.044738
O	      8.41629      4.33605      6.72156        -0.085682      0.038201      0.108807
O	      1.93982      4.09460      4.36773        -0.152252     -0.015064     -0.078095
O	      4.19697      6.26672      4.35899        -0.068390      0.091821     -0.004185
O	      4.11657      4.06083      6.27462        -0.024126     -0.139769      0.076356
O	      6.44822      6.39047      6.55292        -0.034861      0.008758     -0.027598
O	      6.33235      4.20989      8.46415         0.084168      0.126111     -0.090185
O	      8.26807      6.11969      8.70092        -0.030080     -0.130254      0.002410
O	      2.11117      6.04166      6.47050         0.066512     -0.065417     -0.040302
O	      4.31154      8.34755      6.67302         0.001605     -0.066528      0.192519
O	      4.25396      6.27855      8.41562         0.066976      0.370460     -0.019062
O	      6.23861      8.22671      8.48585        -0.133306     -0.035945     -0.007755
O	      6.10364      6.07711     10.58234         0.024622      0.063045     -0.132021
