# total energy = -218.91590213 eV
 
CRYSTAL
PRIMVEC
0.027769 6.089460 6.445642 
6.208617 0.014562 6.459291 
4.133683 4.063187 0.015733 
PRIMCOORD
36 1
Li	      8.31339      8.18310     12.79057        -0.013806     -0.058473     -0.152661
Li	      6.32843      8.11713     10.59169         0.011132     -0.016894      0.000130
Li	     10.17822      6.10328      8.70805         0.040099      0.020494      0.018358
Li	      8.21954      6.16286      6.77485        -0.001402      0.059659      0.005472
Li	      6.19762      4.09349     10.63894        -0.005528      0.027938     -0.056891
Li	      8.29368      6.10417     10.59307        -0.043401     -0.000297      0.070412
Li	      6.22814      8.09328      6.51519        -0.018512      0.015605     -0.019498
Li	      8.19961      7.98877      8.74047         0.035745      0.035317      0.047762
Li	      6.35482      6.23424      8.64060        -0.051084     -0.074519      0.010576
Ti	      3.99813      6.16334      6.41947        -0.229892      0.019605     -0.183571
V	      6.19116      0.14254      6.37831         0.294083     -0.018017      0.125854
V	      6.21893      4.07415      6.60276        -0.148238     -0.046487      0.018588
Cr	      2.10533      2.03084      4.29821         0.101622      0.018958     -0.008778
Co	      4.18521      8.10366      8.58315         0.040699      0.015555      0.025763
Co	      8.33192     10.09631     10.74132         0.095156      0.194006      0.382014
Cu	      6.22162     10.11991      8.60007         0.049726      0.003191     -0.087183
Ni	      2.09160      4.10766      2.21322        -0.052368     -0.063609      0.047859
Ni	      4.15322      4.02322      4.32035         0.029006     -0.043226     -0.011974
O	      2.17645      1.97033      2.28439         0.043587      0.010628      0.017371
O	      4.18526      3.96235      2.11763        -0.104504     -0.023618     -0.077651
O	      4.11771      1.93741      4.09902        -0.065280     -0.179398     -0.087278
O	      6.26107      4.04740      4.57851         0.398760     -0.017719      0.098780
O	      6.23200      1.94080      6.51808        -0.012003      0.039999      0.062565
O	      8.31875      4.09763      6.48776        -0.075504      0.007901     -0.587330
O	      2.15611      3.97483      4.24651        -0.128728     -0.031092      0.088616
O	      4.22878      6.10426      4.46993         0.039071      0.072637      0.124415
O	      4.24766      4.16296      6.42666         0.002193      0.061043      0.085789
O	      6.13197      6.02944      6.38184        -0.010180      0.015507      0.010349
O	      6.25751      4.03188      8.37342        -0.023500      0.026671     -0.034862
O	      8.26467      6.08287      8.66761        -0.012249      0.073978     -0.021916
O	      2.10376      6.12265      6.28178         0.194683      0.000203     -0.113269
O	      4.15438      8.17457      6.61175        -0.034318     -0.102617     -0.016070
O	      4.11976      6.17379      8.45468         0.167070      0.004638      0.431153
O	      6.09794      8.18730      8.57965        -0.069429     -0.062739     -0.032181
O	      6.13188      6.07248     10.96122        -0.391387     -0.023310     -0.225434
O	      8.33833      8.29771     10.71473        -0.051321      0.038482      0.044720
