# total energy = -218.37177112 eV
 
CRYSTAL
PRIMVEC
0.029044 6.285599 6.440401 
6.170501 0.016687 6.454616 
4.130577 4.216441 -0.005817 
PRIMCOORD
36 1
Li	      4.21695     10.33530      6.52526        -0.053309      0.073129     -0.036278
Li	      2.30506      8.37039      6.38516        -0.069734      0.042769     -0.020566
Li	      4.11338      8.39307      8.38020         0.004701     -0.001791      0.071661
Li	      8.23857     10.45835     10.70388         0.025527     -0.011301      0.014733
Li	      2.12588      4.17479      2.16515        -0.026646      0.028041     -0.030861
Li	      4.20132      8.40763      4.47783        -0.015023      0.079171     -0.009061
Li	      4.07205      6.47138      6.42827         0.066303     -0.009618     -0.004957
Li	      4.11925      4.28418      8.57929        -0.006417     -0.007183      0.006915
Li	      5.98726      6.20592      8.66537        -0.001530     -0.011308      0.029252
Ti	      6.22995      4.21914      6.47950         0.172262     -0.056684      0.151515
V	      6.27264      8.19435     10.60390        -0.240124      0.199695      0.206648
V	      8.22586      6.30474      6.51738        -0.003592     -0.074729     -0.189471
Cr	      0.04470      2.13395      2.17206        -0.041686     -0.018040     -0.215707
Co	      2.19969      6.38363      8.48148         0.008940      0.032004      0.009195
Co	      2.07602      6.31379      4.33709         0.093547     -0.056288     -0.022388
Cu	      2.04037      2.24007      4.24307         0.101661      0.034597      0.050376
Cu	      4.12301      4.24025      4.22661        -0.056257     -0.014106     -0.021401
Cu	      2.01006      4.28583      6.39132         0.053644     -0.035206      0.158148
O	      4.24074      8.41348      6.45037        -0.062128      0.011205      0.004077
O	      2.02734      2.12976      2.30828         0.011163     -0.106840     -0.249761
O	      4.32715      4.33628      2.20711         0.141974      0.171762      0.056312
O	      4.36568      1.97232      4.58377         0.204082     -0.072552      0.076113
O	      6.11948      4.03030      4.43797        -0.048256     -0.188206      0.020355
O	      6.14824      2.19950      6.50738        -0.063206      0.122042      0.131333
O	      8.13042      4.28709      6.45038        -0.222939      0.013576      0.046131
O	      2.18468      4.30971      4.13538         0.013761      0.021758      0.005744
O	      3.99266      6.47284      4.11609        -0.243390      0.106193     -0.013023
O	      4.09779      4.08516      6.36664         0.084123     -0.019001      0.030555
O	      6.24957      6.23327      6.27786         0.008569     -0.183428      0.106139
O	      6.11119      4.19639      8.36534         0.040093     -0.084591     -0.201679
O	      8.29268      6.32851      8.33869         0.109899      0.001899      0.117774
O	      2.10040      6.25334      6.51989         0.020644      0.036081     -0.114246
O	      3.98419      6.27624      8.67065        -0.137834      0.003535     -0.030296
O	      6.15175      8.35847      8.87955         0.006139      0.002297     -0.152398
O	      6.26562      6.38715     10.76138         0.006725     -0.136911     -0.016672
O	      8.06095      8.34905     10.82631         0.118313      0.108030      0.035790
