# total energy = -219.72253581 eV
 
CRYSTAL
PRIMVEC
-0.018817 6.188600 6.302337 
6.129041 0.007675 6.276038 
4.124212 4.146676 -0.033262 
PRIMCOORD
36 1
Li	      6.15910      6.20268     12.52826         0.006301      0.024227     -0.065463
Li	      2.08438      2.09956      0.02732         0.011708      0.021813     -0.155296
Li	      6.18877     10.23891      8.35029        -0.031283     -0.066548     -0.032203
Li	      6.21500      8.22707     10.39211         0.052080      0.007312      0.005261
Li	      2.01663      2.03383      4.08924        -0.012366     -0.036571      0.094182
Li	      8.20007      6.19699      6.32463        -0.000674      0.023147     -0.062183
Li	      8.15930      6.27105     10.43315        -0.060940     -0.007374      0.082333
Li	      6.11862      8.28226      6.39934         0.002857     -0.007488     -0.038227
Li	      8.05788      8.27237      8.42976         0.051060      0.070416      0.084138
Ti	      3.98877      3.99932      4.15852        -0.262239     -0.120231      0.166257
V	      6.19820      4.05032      6.21870         0.081613     -0.040797     -0.010913
V	      3.94781      6.23977      6.25270        -0.155244     -0.141594      0.001204
Cr	      6.15950      6.24023      8.39236        -0.391119      0.072746      0.126225
Co	      4.07613      6.19538     10.47422         0.008572      0.183701      0.157877
Co	      8.21927      4.16666      8.34139         0.248786     -0.391952     -0.261737
Ni	      4.09281      8.27821      8.32362         0.141854     -0.018045     -0.081050
Ni	      0.01597      2.08894      2.12576        -0.075700     -0.045241      0.009038
Ni	      4.11937      8.28274      4.19371         0.085834      0.037526     -0.079950
O	      2.06079      2.24055      2.07115        -0.042305     -0.215888      0.050232
O	      4.06741      4.18228      2.16529         1.049474      0.028214      0.286879
O	      4.07454      2.08631      4.17605        -0.051796      0.140175     -0.045737
O	      6.18420      4.13100      4.27989        -0.112941      0.073726      0.056585
O	      6.10727      2.25329      6.34553         0.030278      0.006660      0.001980
O	      8.11484      4.20304      6.35705        -0.135979      0.048065     -1.049689
O	      2.10488      4.12318      4.05736         0.509530     -0.072432      1.048079
O	      4.11278      6.11264      4.24455         0.007227      0.055919     -0.045581
O	      4.11979      4.16888      6.11553         0.024051     -0.071949     -0.091549
O	      6.00947      6.03124      6.36571         0.040962      0.006379      0.020774
O	      6.27043      4.16610      8.33952        -1.299760      0.189126     -0.026645
O	      8.17740      6.13859      8.38192        -0.048960      0.251935      0.096843
O	      2.17115      6.17708      6.28923         0.082218      0.023160     -0.052029
O	      4.14916      8.14040      6.23307        -0.013761      0.105329      0.044910
O	      4.12039      6.21469      8.28941         0.099531     -0.039684     -0.048201
O	      6.11452      8.19017      8.36744         0.132251     -0.041965     -0.047361
O	      6.02489      6.18921     10.41060         0.218247      0.201328     -0.177140
O	      8.24282      8.50873     10.45572        -0.189366     -0.253149      0.038158
