# total energy = -221.56372039 eV
 
CRYSTAL
PRIMVEC
0.000785 6.256116 6.292338 
6.153514 -0.024044 6.318031 
4.106632 4.191250 -0.019973 
PRIMCOORD
36 1
Li	      2.01563      0.07148      2.10517        -0.033665     -0.153502      0.006886
Li	      4.02186      2.06851      2.07305         0.110308     -0.003218     -0.011352
Li	      8.13786      4.16232      8.35107         0.030136      0.057824      0.002607
Li	      2.00053      2.10790      4.08552        -0.079525      0.049937      0.084973
Li	      8.21245      6.24007      6.38503        -0.035440      0.049296     -0.019520
Li	      6.21377      4.11637      6.35175        -0.001918     -0.004654     -0.062921
Li	      0.06679      4.13031      4.13777         0.114440     -0.049385      0.034204
Li	      8.21609      6.21508     10.45899         0.013786     -0.051120      0.035469
Li	      6.24848      6.22395      8.41309        -0.021084      0.099655     -0.015876
Ti	      4.14744      0.08510      4.22189         0.090737      0.095086      0.316708
V	      4.13475      6.25697      6.37272        -0.015741      0.089021     -0.185801
V	      4.03395      4.18786      4.16534        -0.304636      0.109886      0.049379
Cr	      4.15078      4.13584      8.42068        -0.210431     -0.090618     -0.136557
Co	      0.04493      6.23202      6.29452         0.004881      0.181605     -0.012481
Co	      6.14101      8.32848     10.41431         0.073875      0.094137     -0.014217
Co	      6.11983      8.30889      6.39383         0.065032      0.190344     -0.146483
Cu	      8.18357      2.08789      6.32161        -0.208820      0.083360      0.174883
Cu	      6.15517      2.11712      8.40956        -0.174841     -0.154961      0.094368
O	      1.86046      2.13056      2.01139         0.109969     -0.021523     -0.054085
O	      4.07445      4.38900      2.23570         0.028561      0.004066     -0.215937
O	      4.02529      2.05686      4.09673         0.929124     -0.010918      0.006810
O	      6.07087      4.05312      4.20657         0.161258     -0.292028     -0.088848
O	      6.26184      1.97883      6.03333        -0.018282      0.044260     -0.334207
O	      8.23093      4.28352      6.09030        -0.010541      0.102206     -0.428440
O	      2.22801      4.12357      4.30534         0.140374     -0.048241     -0.182459
O	      4.12882      6.09808      4.41235         0.061503      0.075437      0.117501
O	      4.13089      4.22473      6.33521        -0.350454     -0.089214      0.104806
O	      5.96351      6.29490      6.40434         0.166098      0.233585     -0.027256
O	      6.14574      4.00872      8.39694         0.017331      0.044929      0.054996
O	      8.36871      6.34161      8.40461        -0.002198     -0.008189      0.006578
O	      2.16246      6.13466      6.33585        -0.055081     -0.556164      0.002243
O	      4.00420      8.30283      6.34728         0.473657     -0.063855     -0.002063
O	      4.07612      6.18808      8.42139         0.030754      0.021174      0.212216
O	      6.23957      8.32377      8.46277         0.097766     -0.019899      0.448294
O	      6.09240      6.32571     10.42933        -0.217056      0.312094      0.141712
O	      8.27370      8.52678     10.39744        -0.979877     -0.320413      0.043865
