# total energy = -220.50505467 eV
 
CRYSTAL
PRIMVEC
0.039338 6.406530 6.234285 
6.122508 0.061039 6.213200 
4.116462 4.292271 0.005041 
PRIMCOORD
36 1
Li	      2.02554      2.13604      0.03035        -0.001483     -0.003013     -0.026745
Li	      6.18110      4.37780      2.26546         0.013616     -0.000975     -0.004069
Li	      8.06332      4.36687      4.10946         0.074326      0.041638     -0.019156
Li	      6.18419      2.41071      4.10527        -0.042856     -0.054304      0.025937
Li	      2.09013      4.16316      2.19686        -0.001974      0.007865      0.016793
Li	      6.20407      6.26917      4.10121         0.042946      0.005793      0.029002
Li	      4.26993      4.19408      4.06943        -0.059166     -0.060125      0.055185
Li	      8.22376      6.52512     10.35417        -0.028695      0.019900     -0.005389
Li	      8.18622      8.66296      8.36543         0.000030      0.009761     -0.002879
Ti	      2.17242      4.33205      6.12099         0.272737      0.067889     -0.052995
V	     10.12333      4.40106      6.26055        -0.125243     -0.187076      0.030392
V	      6.22215      6.45623      8.34960        -0.195736      0.120865      0.029037
Cr	     10.12902      8.59150     10.36075        -0.130638      0.095405     -0.136075
Co	      4.01684      2.17336      2.25365         0.451481      0.007257     -0.531757
Co	      4.21612      6.39534      2.14514         0.058255     -0.004599     -0.102033
Co	      4.10136      2.19049      6.12390         0.031722     -0.167294     -0.238515
Ni	      6.17524      4.28377      6.15057         0.006743     -0.003999      0.151008
Ni	      4.07609      6.45952      6.20464         0.064019      0.075430      0.065957
O	      2.13471      2.13520      2.06746        -0.460608     -0.033949     -0.039895
O	      4.11019      4.25421      1.96042        -0.102199      0.299300     -0.099930
O	      4.12360      2.15615      4.13744         0.063518      0.065217      0.805699
O	      6.16341      4.31451      4.22374        -0.001855      0.003446     -0.273807
O	      6.09791      2.09745      6.25958         0.120119     -0.018686      0.239526
O	      8.32170      4.32703      6.19526         0.160377     -0.116330      0.065961
O	      1.94660      4.27364      4.27390         0.003379     -0.002816      0.090042
O	      4.10840      6.63751      4.18046         0.069481      0.019043     -0.255220
O	      4.05992      4.37644      6.21874        -0.333778      0.205052      0.030662
O	      6.20473      6.52278      6.29562        -0.006763      0.030557      0.007742
O	      6.13592      4.42382      8.33500         0.040930     -0.156248      0.074266
O	      8.07547      6.49216      8.22225         0.194919     -0.018146     -0.085571
O	      1.95200      6.27294      6.22039        -0.066979     -0.031232     -0.034104
O	      4.17017      8.63030      6.17418        -0.024656      0.061823     -0.111479
O	      4.29763      6.51799      8.21656        -0.064116     -0.162509      0.130864
O	      6.09764      8.46554      8.18805        -0.181370     -0.023572      0.122062
O	      6.18582      6.28600     10.34289         0.028879     -0.079553      0.032479
O	      8.33606      8.61529     10.37583         0.130643     -0.011816      0.017006
