# total energy = -225.41395280 eV
 
CRYSTAL
PRIMVEC
0.011058 6.117749 6.217279 
6.300873 -0.018691 6.246637 
4.223514 4.121030 -0.035411 
PRIMCOORD
36 1
Li	      8.33375      2.07606      6.19000        -0.021377      0.004295      0.015527
Li	      4.17614      1.99619      2.18552        -0.024963      0.010020      0.016434
Li	      6.38694      8.20252     10.31572        -0.005964      0.030762     -0.001376
Li	     10.50770      6.13252      8.29055         0.011765     -0.006935      0.008393
Li	      4.28514      4.08679      4.08944        -0.000019     -0.007231     -0.026152
Li	      6.31390      4.01509      6.21229        -0.001105     -0.003976      0.011447
Li	      8.41633      6.20997     10.19993         0.002180      0.011805     -0.013978
Li	      8.42096      8.15157      8.33319        -0.003293      0.029798     -0.023799
Li	      6.36639      6.14894      8.36468         0.053844      0.036808      0.015715
Ti	      6.39907      8.20977      6.29096         0.006507      0.049911      0.187154
V	      6.26329      0.04984      6.27485         0.045591     -0.055836     -0.111071
V	      6.25764      4.03325     10.25819         0.023447      0.000434      0.187785
Cr	      8.43767      6.12916      6.23154         0.011945     -0.017629     -0.024025
Co	      2.10959      0.03397      2.07441         0.043649      0.082196      0.073849
Co	      2.15663      4.09847      2.12534         0.032603      0.006522     -0.049200
Co	      6.32435      6.12202      4.11293        -0.056867     -0.000510     -0.053039
Co	      4.22976      6.11326      6.24596         0.006626      0.017582      0.061114
Cu	      4.17446      6.08527     10.30957         0.066541     -0.056582     -0.018958
O	      2.08882      1.98159      2.22729        -0.030461      0.007406      0.106134
O	      4.31484      4.08442      1.87759         0.043190     -0.020311     -0.078169
O	      4.05908      1.93707      4.23418        -0.144104     -0.006379      0.009129
O	      6.29690      4.19558      3.95909        -0.258041      0.091986     -0.076129
O	      6.22951      1.97245      6.19095        -0.081583      0.031715      0.020372
O	      8.51495      4.10686      6.31203         0.018085      0.054330      0.043883
O	      2.05336      3.99332      4.22277        -0.036564     -0.105499      0.011904
O	      4.34008      6.22632      4.18497         0.040254      0.045421      0.017182
O	      4.11203      4.03827      6.17826        -0.243935     -0.040823      0.033788
O	      6.37587      6.19524      6.12992         0.023187      0.105585     -0.012553
O	      6.31814      4.10069      8.47576         0.051664      0.004868     -0.038374
O	      8.41353      6.10076      8.22631         0.002305     -0.056924     -0.088325
O	      2.04237      6.09812      6.28934         0.050463     -0.152020      0.111275
O	      4.35421      8.24438      6.06585         0.123339     -0.012528     -0.026301
O	      4.03761      6.15021      8.18739        -0.159288     -0.069454     -0.009893
O	      6.30583      8.26045      8.17049         0.016148     -0.049172     -0.329192
O	      6.35550      6.04717     10.55965         0.281301      0.023799      0.112964
O	      8.56809      8.23942     10.37446         0.112932      0.016567     -0.063516
