# total energy = -226.65777319 eV
 
CRYSTAL
PRIMVEC
0.023828 6.234143 6.328735 
6.281389 0.009395 6.342276 
4.197594 4.174790 -0.003214 
PRIMCOORD
36 1
Li	      6.36778     10.31337      8.45117        -0.002320      0.002249      0.024373
Li	      6.33670      8.31697     10.48529        -0.012335     -0.051764      0.020369
Li	      4.13166      2.16748      6.32242        -0.023010      0.072555      0.043217
Li	      6.22988      4.22594      6.31354        -0.006961     -0.034820      0.065054
Li	      4.17881      8.27718      4.25531        -0.005030      0.014919     -0.070625
Li	      2.18354      6.27804      4.25651        -0.005297      0.033222     -0.026786
Li	      4.23052      6.20357      6.28571         0.016296     -0.038714      0.046653
Li	      4.12142      4.18425      8.32901         0.019379     -0.018839     -0.068184
Li	      6.25944      6.32603      8.40896         0.002776     -0.029158     -0.061019
Ti	      4.21640      6.21141     10.46405         0.200609      0.000498     -0.269995
V	      2.07699      8.24074      6.30454         0.079109     -0.018417      0.104253
V	      8.25805      4.33457      8.50447        -0.479239     -0.000040     -0.054453
Cr	      4.23890      8.30883      8.43155         0.083284     -0.080362      0.173959
Co	      6.25529      6.26713      4.36319         0.063790     -0.066993     -0.265473
Co	      0.08350      6.21652      6.26997        -0.137980      0.017173     -0.045924
Co	      4.23645      6.22407      2.16447         0.115099      0.208954      0.071945
Co	      4.27844      4.17095      4.32864         0.039783      0.199244     -0.171325
Co	      6.39174      8.33989      6.42477        -0.045546     -0.014797      0.110843
O	      2.17983      2.17793      2.03352        -0.044934      0.027267     -0.019796
O	      4.07008      4.10212      2.08978        -0.070398     -0.137121      0.010695
O	      4.18462      2.03847      4.14475         0.047288     -0.163740     -0.014641
O	      6.42829      4.16725      4.29508         0.019869     -0.056052      0.087376
O	      6.50011      2.09569      6.44763        -0.142148     -0.057922      0.401393
O	      8.41424      4.06932      6.44934         0.013712     -0.069549     -0.055421
O	      2.11433      4.17613      3.96702        -0.054238      0.071237      0.183714
O	      4.25288      6.21603      4.14047        -0.034473     -0.164588     -0.563999
O	      4.08417      4.17135      6.32357        -0.171580     -0.059357      0.013663
O	      6.31272      6.48413      6.31057         0.025666      0.070678      0.077043
O	      6.46816      4.16905      8.40436         0.450855     -0.099365      0.023005
O	      8.40957      6.08830      8.38920         0.095855      0.059148     -0.002720
O	      2.11021      6.20903      6.31352         0.074556      0.049530     -0.039567
O	      4.08629      8.26858      6.42420         0.171414      0.065212     -0.069973
O	      4.20724      6.26435      8.58794        -0.008170      0.115793      0.316297
O	      6.22029      8.33761      8.31980        -0.040658      0.041299     -0.053581
O	      6.13052      6.25635     10.61621        -0.208714      0.012173      0.010883
O	      8.40898      8.40233     10.69985        -0.026309      0.100447      0.068748
