# total energy = -218.79152014 eV
 
CRYSTAL
PRIMVEC
0.028111 6.316650 6.019440 
6.334728 0.032398 6.014857 
4.242126 4.227162 0.002876 
PRIMCOORD
36 1
Li	      6.33083      4.27643      2.10213        -0.042418     -0.009454     -0.058396
Li	      4.19479      2.14863      2.12659         0.008455      0.039285     -0.141785
Li	      4.25085      6.35206      9.89400         0.005071     -0.018303     -0.087579
Li	     10.47370      6.41970      8.16135         0.080065     -0.083533     -0.123774
Li	      8.41613      4.35797      8.11124         0.059216     -0.021708      0.028078
Li	      2.10377      2.11792      3.89835        -0.118331      0.039423     -0.003868
Li	      8.43593      6.38456      9.86980         0.016798     -0.075134      0.098284
Li	      8.58969      8.33231      8.12146        -0.061034     -0.006812     -0.115829
Li	      6.47947      6.25333      8.11250        -0.005775      0.066450     -0.099832
Ti	      8.40358      2.25800      6.08517        -0.484809      0.055885      0.999087
V	      6.37312      8.44190      6.10321         0.036611     -0.038724      0.808081
V	      4.24955      6.29634      6.07404         0.034736     -0.069034     -0.056880
Cr	      8.46461      6.32526      6.05508         0.110714      0.029786      0.219506
Fe	      4.26784      4.22047      0.06206         0.121845      0.287091      0.121469
Co	      6.37253      8.43533      9.95506         0.136296     -0.191502     -0.831252
Cu	      6.38560      4.24857      6.06585        -0.004604     -0.097539     -0.064726
Ni	      4.26280      4.21865      3.89653        -0.184860      0.247169     -0.074966
Ni	      6.34236      4.27007      9.89263         0.068077      0.002803      0.087300
O	      2.11772      2.09452      1.87798         0.084909      0.074069     -0.456938
O	      4.26197      4.22151      1.91620        -0.047814     -0.067428      0.132787
O	      4.39285      2.14993      4.04311        -0.035048     -0.210290      0.105579
O	      6.31191      4.06466      4.10871         0.193581      0.512196      0.109476
O	      6.36529      2.05098      5.88543         0.195899     -0.067399      1.863463
O	      8.53916      4.22274      6.01145         0.117234     -0.025486     -0.109629
O	      2.08605      4.25032      4.21865        -0.001925      0.002852     -0.383651
O	      4.29537      6.33104      4.16687        -0.051371      0.053922     -0.019787
O	      4.10031      4.22628      5.99426         0.040577     -0.076110      0.044011
O	      6.39714      6.45848      6.00474         0.017076     -0.087875     -0.037695
O	      6.35250      4.23311      7.95488         0.019786      0.035789      0.024663
O	      8.49390      6.34849      7.93937        -0.047284      0.001313     -0.137610
O	      2.20786      6.33289      6.03380        -0.036659      0.104000     -0.082198
O	      4.20360      8.40418      5.95256        -0.066856     -0.039993      0.084841
O	      4.27178      6.35703      7.82149         0.022809     -0.003298      0.227665
O	      6.33957      8.47355      7.94640        -0.060178      0.006537     -1.656880
O	      6.36726      6.41935     10.11140        -0.039857     -0.364590     -0.148870
O	      8.39251      8.46414     10.10934        -0.080932     -0.004361     -0.262145
