# total energy = -220.71644259 eV
 
CRYSTAL
PRIMVEC
0.042754 6.045899 6.543998 
6.231791 0.031806 6.556625 
4.152768 4.037352 0.023417 
PRIMCOORD
36 1
Li	      8.30930      8.09365     13.00461        -0.011338      0.017998     -0.031531
Li	      2.20620      5.97907      8.68936        -0.039960      0.053835      0.056162
Li	      8.37977      9.96271     10.84315        -0.026615      0.000043     -0.032000
Li	      4.16047      4.07855      4.61595         0.022933     -0.007822     -0.028017
Li	      4.20548      2.17168      6.63009        -0.074468     -0.095145      0.019321
Li	      6.16064      4.03850      6.60632         0.114327      0.066992     -0.020563
Li	     10.36615      8.09387     10.88828        -0.033548     -0.015163     -0.057988
Li	      2.22991      4.06568      6.68628        -0.064136     -0.041849      0.076387
Li	      4.07474      4.10832      8.64972        -0.001750     -0.013978      0.060701
Ti	     10.28965      4.02688      6.53533        -0.208801      0.037520     -0.136896
V	      6.24333      2.11551      8.70376         0.090595     -0.032449     -0.087403
V	      6.34013      5.99939      4.46159        -0.141509     -0.150047     -0.213892
Cr	      4.20940      8.05404      8.74018        -0.025625      0.061937      0.132767
Fe	      2.13620      6.07657      4.44152         0.058929     -0.152251     -0.121422
Co	      2.10525      4.03101      2.17769         0.011999     -0.073942     -0.034524
Cu	      4.11469      6.02309      6.67531         0.095369      0.196568     -0.030277
Cu	      6.26063      6.04772      8.77292         0.001595     -0.072640     -0.100581
Ni	      6.24459      2.10397      4.39497        -0.122115      0.112861      0.077210
O	      2.10766      2.08207      2.29913         0.189563      0.058517     -0.035363
O	      4.09038      4.06481      2.07186         0.023240     -0.118745     -0.040446
O	      4.04694      2.04534      4.24071         0.143082      0.030036     -0.043746
O	      6.24062      4.19931      4.32178         0.011562      0.034617      0.015852
O	      6.22553      1.97886      6.64691        -0.026550     -0.082709     -0.005073
O	      8.40470      4.07901      6.74982         0.132517     -0.018362      0.016420
O	      2.08722      3.95237      4.11639         0.022325      0.111501      0.022654
O	      4.23424      6.05333      4.17855        -0.010467     -0.022054     -0.104228
O	      4.18117      4.14227      6.59351        -0.001020     -0.124376      0.032066
O	      6.26999      6.15563      6.17638        -0.085285      0.075124      0.231177
O	      6.42619      4.05044      8.68782         0.103725      0.176967     -0.000609
O	      8.31494      5.97975      8.86275        -0.127120     -0.041748      0.069624
O	      2.00506      6.00559      6.43177        -0.089126     -0.032877      0.123487
O	      4.17517      8.06381      6.72935         0.028105      0.047890     -0.035470
O	      4.29318      6.09519      8.74366        -0.085288     -0.037958      0.118837
O	      6.18072      8.02264      8.87673         0.025864      0.068098     -0.153381
O	      6.27084      6.07507     11.14495        -0.047599     -0.126002      0.266134
O	      8.29873      8.01438     10.93251         0.146592      0.109611     -0.005390
