# total energy = -220.75108335 eV
 
CRYSTAL
PRIMVEC
0.006232 6.133497 6.485120 
6.205845 -0.031532 6.522646 
4.139607 4.116715 -0.023600 
PRIMCOORD
36 1
Li	     10.25049      4.13255      6.55892         0.029293     -0.015608     -0.023892
Li	      8.27830      4.14545      4.56526        -0.022238     -0.021169      0.073094
Li	      6.19459      2.11705      8.56714        -0.042977      0.010562     -0.037082
Li	      8.20313      4.05033      8.57746        -0.065238      0.041138      0.010756
Li	      2.07926      2.03245      4.23751        -0.026569     -0.052109     -0.045384
Li	      8.32449      5.98783      6.56043        -0.023269      0.050908      0.058699
Li	      6.29260      4.04525      6.63087        -0.007370      0.022732     -0.019419
Li	      6.19169      4.03868     10.64251         0.013734      0.067205     -0.070436
Li	      6.26692      6.04908      8.63935         0.052686      0.052391      0.007849
Ti	      4.27033      6.15325      6.46825         0.148333     -0.099230     -0.056353
V	      4.15365      4.04009      4.27330         0.176376      0.149508      0.477632
V	      8.21031      6.10833     10.74407        -0.150863      0.144533      0.078741
Cr	      6.22110      2.04781      4.40206         0.224279     -0.059543      0.086150
Fe	      8.18685      2.14843      6.60202        -0.096923     -0.062904     -0.220181
Co	      4.22135      4.08192      8.67721         0.016252     -0.202994      0.061247
Cu	      2.05802      0.00354      2.16559        -0.082475     -0.047437      0.045509
Cu	      4.10860      2.01959      2.19402         0.043780     -0.011746      0.033964
Cu	      6.15273      8.23166      6.47882        -0.033710     -0.009463     -0.029969
O	      1.96978      1.93758      2.02194        -0.099793      0.048553      0.332276
O	      4.23148      3.98008      2.33521        -0.006865     -0.048003     -0.464449
O	      4.21372      2.05775      4.26115        -0.248188     -0.011185     -0.056502
O	      6.01857      4.06479      4.50566        -0.182443     -0.018024     -0.039209
O	      6.23868      1.99091      6.38549        -0.141716     -0.011160      0.122924
O	      8.28703      4.02803      6.54541         0.042554      0.130648      0.053699
O	      2.23890      4.16443      4.15505         0.035953     -0.158688     -0.034745
O	      4.06843      6.08303      4.43179         0.080870      0.071203     -0.022136
O	      4.01096      4.17484      6.39492         0.119991      0.059016      0.064248
O	      6.11108      6.22932      6.47883        -0.141920     -0.039921     -0.040011
O	      6.05258      4.10470      8.66206         0.044805      0.036180     -0.044737
O	      8.33310      6.24919      8.86240         0.051383      0.061061     -0.400384
O	      2.12842      6.10479      6.23693         0.134069      0.032999      0.139853
O	      4.12610      8.11601      6.52867         0.116860     -0.090107      0.058930
O	      4.07137      6.13673      8.45233         0.059111     -0.063475     -0.075709
O	      6.43668      8.28993      8.86774         0.112255     -0.027988     -0.059214
O	      6.38990      6.14116     10.80040        -0.131508      0.006178      0.043527
O	      8.26816      8.09625     10.92855         0.001480      0.065941     -0.009286
