# total energy = -221.06248918 eV
 
CRYSTAL
PRIMVEC
0.071233 6.186336 6.221493 
6.312655 0.050846 6.242278 
4.225746 4.155089 0.016776 
PRIMCOORD
36 1
Li	      2.03679      2.07909      0.10257        -0.058184     -0.004377     -0.025981
Li	      4.02571      2.08907      2.10078        -0.030618      0.001771     -0.027719
Li	      6.34927      2.12503      4.27470         0.066114     -0.000839      0.034199
Li	      6.44793      2.20017      8.25545         0.017961     -0.036222      0.003795
Li	      2.06985      3.98223      2.02769        -0.013101     -0.011032     -0.056872
Li	      2.14921      2.09132      3.98512        -0.036759     -0.015183     -0.069101
Li	      6.36978      4.04528      6.31620         0.026135     -0.016438      0.024510
Li	      8.51228      6.34125     10.36908         0.020663      0.018878      0.007262
Li	      4.23662      6.23830      6.25341        -0.009997     -0.067236     -0.014810
Ti	      4.36393      4.23859      4.04765         0.068699      0.266745     -0.098339
V	      8.40771      4.19979      4.18929        -0.421572      0.141428      0.191918
V	      6.31709      8.28605      6.19482        -0.056847     -0.010095      0.058822
Cr	     10.50674      4.24675      6.29545         0.109101      0.029658      0.168656
Fe	      6.40699      6.18471      8.38537         0.260966      0.168855     -0.212727
Co	      4.23303      2.10804      6.23288        -0.043130     -0.006227      0.064020
Ni	      2.13357      0.10416      2.07866        -0.004194     -0.097769     -0.017675
Ni	      4.25111      8.16618      4.12550         0.101576      0.000464      0.027246
Ni	      4.29600      4.14945      8.32868        -0.018820     -0.019217     -0.011142
O	      2.12314      2.04192      2.01223        -0.018401      0.354488      0.018235
O	      4.24381      4.12044      2.13354        -0.036683     -0.040216      0.215260
O	      4.22591      2.13400      4.26557         0.012205      0.075813      0.042613
O	      6.27199      4.16427      4.19112        -0.186915     -0.007411      0.026723
O	      6.14673      2.02514      6.26088         0.016169      0.076272     -0.004634
O	      8.50368      4.31822      6.20227         0.097856     -0.006530     -0.013003
O	      2.24001      4.13151      4.31794         0.033472     -0.017764      0.091898
O	      4.24359      6.09815      4.20323         0.032907     -0.328076     -0.036648
O	      4.14351      4.07381      6.15866        -0.012019     -0.008508     -0.111927
O	      6.44526      6.39312      6.31833         0.011674      0.013108     -0.059969
O	      6.32887      4.24007      8.33688         0.111049     -0.099631     -0.127294
O	      8.37123      6.29247      8.20164         0.014066     -0.153872     -0.026887
O	      2.10233      6.04189      6.24421        -0.035368     -0.027456     -0.103808
O	      4.46493      8.30452      6.19060         0.144697     -0.033479      0.100930
O	      4.33512      6.23437      8.37473         0.166403      0.123042     -0.038814
O	      6.45686      8.31671      8.13578        -0.108798     -0.189910     -0.170669
O	      6.35720      6.20349     10.42934        -0.046492      0.089119      0.059226
O	      8.52903      8.41478     10.43675        -0.173815     -0.162154      0.092707
