# total energy = -222.45657099 eV
 
CRYSTAL
PRIMVEC
-0.037784 6.293475 6.290186 
6.133050 -0.033126 6.285914 
4.078145 4.181957 -0.011106 
PRIMCOORD
36 1
Li	      0.09157      6.37828      6.29970         0.030198      0.007134     -0.029191
Li	      1.95818      8.28036      6.30561        -0.009504     -0.033956     -0.025179
Li	      1.93916      0.11160      2.00704         0.035614      0.038823     -0.034955
Li	      0.10442      1.96278      1.89989         0.010253     -0.028075     -0.121722
Li	      1.96824      2.14500      4.18461         0.049469      0.000283     -0.012210
Li	      4.10433      2.11296      6.26495        -0.042451     -0.036091     -0.001766
Li	      6.07245      4.12029      6.26785         0.003725      0.051377     -0.030679
Li	      4.11900      8.30376      4.30082         0.006696      0.083849      0.029341
Li	      1.98680      4.20455      6.26614         0.028289     -0.019417     -0.036808
Ti	      4.12473      4.09756      8.31084         0.056912     -0.046796     -0.097990
V	      8.13453      4.18163      4.31769        -0.041527     -0.032829     -0.161747
V	      8.15907      4.10205      8.25005        -0.030493     -0.001259     -0.144003
Cr	      6.11882      2.08733      4.28263         0.050238     -0.111394      0.083256
Fe	      4.02778      8.42092      8.25249         0.023570     -0.040569      0.030161
Co	      4.04690      6.32108      6.21936         0.282511      0.111766      0.774856
Co	      6.07461      6.26075      8.40083        -0.200016      0.048924     -0.234621
Cu	      4.10290      4.22942      4.18798         0.002112     -0.046291     -0.046656
Ni	      2.04776      6.26476      4.25298        -0.151005      0.102167      0.217620
O	      2.07427      2.20515      2.07245         0.012679      0.097444      0.021650
O	      4.00504      4.09563      1.96871        -0.014706      0.003420     -0.123068
O	      4.10290      2.03436      4.12942         0.009333     -0.027588      0.012669
O	      6.13463      4.10166      4.15340         0.044197      0.016602      0.164793
O	      6.11737      2.06682      6.19729        -0.048711      0.006223     -0.009008
O	      8.10718      4.22081      6.41084        -0.004079      0.009601      0.236396
O	      2.09426      4.25064      3.93118         0.015419     -0.162711     -0.049427
O	      4.08309      6.20177      4.24168        -0.007734      0.064742      0.859819
O	      4.02495      4.18564      6.50196        -0.009337      0.551463      0.124035
O	      5.95748      6.26009      6.48604        -0.270634      0.071483     -0.207075
O	      6.07775      4.27262      8.42592        -0.131931     -0.020293      0.040400
O	      8.04782      6.31199      8.41750         0.009370      0.201353     -0.132530
O	      2.15106      6.24804      6.28536         0.428097      0.101962     -0.361374
O	      4.08012      8.33084      6.33225        -0.046758     -1.069932     -0.165253
O	      4.12805      6.21879      8.49567         0.026538      0.004812     -0.539353
O	      6.12778      8.22378      8.48111         0.030939     -0.031274      0.033569
O	      6.05567      6.32805     10.40225        -0.076788      0.036421      0.036567
O	      8.10931      8.43109     10.42136        -0.070486      0.098628     -0.100515
