# total energy = -92.45045966 eV
 
CRYSTAL
PRIMVEC
2.001116 4.014545 2.001162 
2.045205 -4.058470 2.045209 
4.050754 -0.000026 -4.050819 
PRIMCOORD
16 1
Li	      5.89121     -0.01745     -1.94760         0.042819      0.132555     -0.588697
Li	      3.96291      1.93561      1.93052        -0.094591      0.290392      0.097228
Li	      3.96763     -0.01891     -0.02183        -0.358736      0.158648     -0.133108
Li	      3.93881     -1.97603     -1.94084        -0.152713     -0.014783     -0.151761
Mn	      7.88350     -0.04289      0.00468         3.599785     -0.100508      0.117731
Mn	      3.96800     -1.99955      1.96832         0.269587     -2.249985      1.291588
Ni	      5.93323     -0.04270      1.95520         0.618449      0.093764      1.519037
Ni	      5.91862     -1.99947      0.01833         1.098241     -1.179491     -0.410051
O	      6.06110     -0.02022      0.00069        -0.697412      0.762967     -0.669847
O	      3.79593      1.93556     -0.02137         0.646424      0.500882     -0.068927
O	      3.94247     -0.02162     -2.11867        -0.314378     -0.023517     -0.754592
O	      3.94879     -0.15346      2.07595        -0.686911      1.171112      0.483640
O	      3.96379     -1.97732      0.14578        -0.553531     -0.140319     -1.500375
O	      1.95875      2.06855      1.85153        -0.740260      0.821804      0.781915
O	      1.86632      0.11177     -0.00649        -1.110815      0.094360     -0.238571
O	      2.09015     -2.11103      1.98361        -1.565957     -0.317880      0.224790
