# total energy = -225.25377125 eV
 
CRYSTAL
PRIMVEC
0.022704 6.258968 6.233821 
6.221012 0.036163 6.220139 
4.158445 4.174769 0.013258 
PRIMCOORD
36 1
Li	      8.31435      8.38362     12.40481         0.002518     -0.003912     -0.057903
Li	      8.33412     10.38765     10.36877         0.041756     -0.066794     -0.034257
Li	      6.29429      8.37668     10.33497         0.011445     -0.022719     -0.011402
Li	      2.05237      4.16319      2.21068        -0.034213      0.035939      0.049231
Li	      2.06749      2.17436      4.06538         0.039099      0.060385      0.071465
Li	      4.11113      4.18761      4.12759        -0.023481     -0.075692     -0.013769
Li	      4.15388      2.12608      6.20131         0.004478     -0.006466     -0.045375
Li	      6.22141      4.17270     10.29847        -0.002115      0.058237     -0.057024
Li	      6.27355      6.29220      8.36164         0.030686     -0.057633     -0.042669
Ti	      6.35981      4.17637      6.11248         0.179415      0.059697      0.101650
V	     10.27608      4.25187      6.18038        -0.002879      0.030509      0.244792
V	      4.15370      6.30308      6.15281         0.057989      0.031464     -0.001994
Cr	      8.34532      8.34875      8.36772        -0.076119      0.314544      0.056390
Fe	      2.10919      4.12581      6.14096        -0.066621     -0.080057      0.260765
Co	      6.22122      4.20595      2.19271        -0.230560     -0.078677      0.056285
Co	      4.08972      2.07688      2.25152         0.113781      0.035275      0.021289
Co	      0.02490      2.10820      2.10726         0.429713     -0.116565      0.875798
Ni	      8.33408      6.31086     10.35307        -0.092226     -0.011995     -0.002069
O	      2.01868      2.04116      2.08180         0.278088      0.048048      0.128109
O	      4.14320      4.27226      1.93128        -0.042272     -0.950043     -0.230992
O	      4.17542      2.11565      4.00148        -0.040968      0.014396     -0.014154
O	      6.22661      4.14105      4.31126         0.077237      0.031155     -0.094248
O	      6.21963      2.13548      6.36537        -0.071237      0.044997     -1.119872
O	      8.28107      4.23415      6.22136        -0.192767     -0.012995      0.002695
O	      2.07577      4.20871      4.26403        -0.036096     -0.083252     -0.189149
O	      4.16690      6.25504      4.14113         0.236202      0.012402      0.750061
O	      4.20458      4.23041      6.27809         0.059664     -0.046194     -0.024245
O	      6.16437      6.19635      6.24781         0.076824      0.008469     -0.100469
O	      6.19963      4.08845      8.21858         0.012420      1.106218     -0.242101
O	      8.45590      6.36894      8.32967        -0.721276     -0.202066     -0.236375
O	      2.08006      6.21167      6.22941        -0.047610      0.101195      0.109960
O	      4.19880      8.43748      6.39750        -0.056781     -0.168743     -0.107508
O	      4.17504      6.27000      8.20136         0.006966     -0.062543      0.040729
O	      6.29022      8.36300      8.23309         0.064826     -0.033049     -0.028818
O	      6.24565      6.31545     10.62901        -0.056608     -0.020958     -0.154872
O	      8.32256      8.34986     10.30869         0.070722      0.107420      0.040044
