# total energy = -229.13032436 eV
 
CRYSTAL
PRIMVEC
0.008356 6.314999 6.243692 
6.261460 0.002286 6.249604 
4.179742 4.219249 -0.003556 
PRIMCOORD
36 1
Li	      6.25574      6.37043     12.40791        -0.030471     -0.018914     -0.045933
Li	      2.08750      6.32916      8.24807         0.003184     -0.000234      0.041187
Li	      4.30297      6.32927     10.47462         0.025783     -0.033858      0.012457
Li	      6.23814      2.06253      4.20737         0.040448     -0.039953     -0.031211
Li	      8.38151      4.20072      8.26046        -0.043257      0.013629      0.028131
Li	      8.35640      6.20150      6.26167         0.037882     -0.053022     -0.020543
Li	      6.31124      4.27346     10.38882        -0.016833      0.054457     -0.041981
Li	      2.09636      4.28062      6.24728        -0.019842      0.029149     -0.023149
Li	      4.15178      6.32890      6.21647         0.000244      0.022776     -0.010309
Ti	      8.28429      8.48962      8.32234        -0.139768     -0.100265      0.471788
V	      4.22069      8.39087      8.26525         0.044074     -0.104247      0.078419
V	      4.14387      4.18156      4.15177        -0.270233     -0.247834      0.118075
Cr	      6.25933      4.20949      6.26574         0.166513      0.044194     -0.039975
Fe	      8.31169      2.12756      6.20836         0.111321      0.082916     -0.062228
Co	      6.24616      6.34174      4.22511        -0.049258      0.035892     -0.090929
Co	      4.19277      6.26977      2.05744         0.050091      0.080588     -0.106315
Co	      8.25984      6.37045     10.47335         0.658028     -0.050113     -0.327886
Co	      6.29243      6.31548      8.28115         0.001678      0.063607      0.169925
O	      2.20129      2.07582      2.08511         0.124747     -0.048001      0.024922
O	      4.19175      4.10385      2.21266         0.033636      0.252932     -0.017670
O	      4.20144      2.15611      3.99382        -0.126999      0.104791      0.024699
O	      6.03621      4.23771      4.27255        -0.031855      0.090993     -0.012674
O	      6.31295      2.16005      6.27062        -0.125852      0.043320      0.229741
O	      8.27330      4.11841      6.22555        -0.064464     -0.008336      0.011001
O	      2.26324      4.22392      4.22610         0.134215     -0.350298      0.030709
O	      4.08479      6.20287      4.11098        -0.167632      0.172116     -0.010062
O	      4.21245      4.21583      6.31505        -0.006958      0.011374      0.052481
O	      6.29137      6.20971      6.24437        -0.059318     -0.007132     -0.048131
O	      6.13767      4.18039      8.28751        -0.006152     -0.276285     -0.060416
O	      8.35351      6.49463      8.35754        -0.334786     -0.071706      0.510420
O	      2.10049      6.46622      6.17598        -0.165765     -0.105701     -0.529904
O	      4.16540      8.45000      6.45083         0.016520     -0.037877      0.018311
O	      4.20505      6.31381      8.37333         0.047362      0.014113     -0.050637
O	      6.30637      8.47892      8.29974         0.110508      0.105872     -0.039666
O	      6.41880      6.28786     10.36412         0.047259     -0.053603     -0.046302
O	      8.38463      8.41831     10.33091         0.005948      0.384658     -0.206345
