# total energy = -217.36737704 eV
 
CRYSTAL
PRIMVEC
0.036097 6.142566 6.235748 
6.415131 -0.010653 6.282762 
4.284148 4.134236 -0.014770 
PRIMCOORD
36 1
Li	      2.20891      2.02113      0.13545         0.143498     -0.000276      0.080682
Li	      4.21310      8.18827      8.22620        -0.171421      0.002299     -0.119306
Li	      0.16948      2.06730      2.12657         0.062258     -0.059420      0.026268
Li	      2.13017      3.92279      2.15991        -0.003853     -0.067466     -0.013220
Li	      2.04138      2.13315      4.06332        -0.041272      0.033084     -0.007146
Li	      4.41135      8.13498      4.19750         0.065207     -0.007859      0.108652
Li	      6.31221      8.19027      6.21478        -0.109188      0.018053     -0.080788
Li	      4.29711      6.33628      6.16500         0.020478      0.103910      0.003818
Li	      6.44630      6.21571      8.31982        -0.025045      0.009238      0.007095
Ti	      6.45437      4.20395      6.33506         0.015650      0.161321      0.229951
V	      4.35209      6.17301     10.39617        -0.032517     -0.106659     -0.048057
V	      8.58915      8.18291      8.30683        -0.046826      0.162423     -0.023585
Cr	      4.36267     10.20037      6.27924        -0.134234      0.170912      0.144797
Fe	      4.15612      4.23106      4.04730         0.119283     -0.243646      0.054087
Cu	      6.46435      8.18172     10.42554        -0.063842     -0.050232     -0.084301
Ni	      2.17518      6.17545      8.29086        -0.004697      0.066194     -0.069445
Ni	      2.20338      6.16143      4.18557        -0.066058      0.066552      0.131463
Ni	      8.55956      6.16361      6.28096        -0.045138     -0.021128     -0.016591
O	      2.15533      1.95590      2.08260        -0.079236      0.126750      0.092912
O	      4.34138      4.10538      2.07451        -0.028938     -0.074709     -0.001651
O	      4.16203      1.85657      4.20006         0.075358      0.247680     -0.043730
O	      6.46497      4.01907      4.24255         0.018411      0.063557     -0.033859
O	      6.31853      2.03048      6.20865         0.072466      0.097550      0.090096
O	      8.51576      4.08184      6.18338        -0.070698     -0.059434      0.001577
O	      2.26144      4.13833      4.14618        -0.129457     -0.135223     -0.052471
O	      4.24476      6.10770      4.18629         0.093306      0.139628     -0.052427
O	      4.43867      4.09542      6.27588         0.098603      0.072432     -0.101336
O	      6.49466      6.04423      6.26962        -0.052167     -0.266625     -0.036735
O	      6.36547      4.09166      8.20622         0.011481      0.034858     -0.199284
O	      8.55099      6.36961      8.36847         0.003534     -0.058896      0.041570
O	      1.97829      6.17308      6.22472         0.208819      0.028762      0.015458
O	      4.30067      8.33212      6.23330         0.071994     -0.263682     -0.035481
O	      4.32325      6.03566      8.42182         0.035976     -0.022161     -0.045458
O	      6.63175      8.28340      8.39049         0.149634     -0.074567      0.048915
O	      6.37275      6.20021     10.52509        -0.036385     -0.068733     -0.035375
O	      8.73810      8.37083     10.28721        -0.124987     -0.024486      0.022906
