# total energy = -217.41913176 eV
 
CRYSTAL
PRIMVEC
0.022216 6.245742 6.249151 
6.267140 0.004737 6.266825 
4.180606 4.178016 0.000304 
PRIMCOORD
36 1
Li	      4.21555     10.31877      6.24618         0.028739      0.100101     -0.035563
Li	      4.25018      6.26195     10.43528        -0.024659     -0.005678     -0.017821
Li	      4.23008      6.25418      2.27764        -0.009541     -0.031581      0.068067
Li	      6.11462      6.38652      4.21625         0.045275     -0.006441      0.010569
Li	      4.08411      4.28731      4.22992        -0.006612     -0.070896     -0.033337
Li	      4.26121      8.26274      4.29892        -0.039698      0.059077     -0.055669
Li	      2.19323      6.17530      4.27725        -0.057972     -0.028471     -0.052190
Li	      1.99144      4.13974      6.07790         0.048521     -0.054039     -0.029532
Li	      6.27184      6.25648      8.25988         0.010983      0.018994      0.012236
Ti	      8.47730      8.23827      8.35670         0.073534     -0.227404      0.352231
V	      6.18145      4.23834      2.11617         0.214812      0.130139      0.181100
V	      6.28946      8.16152     10.43106         0.071883      0.166081     -0.169339
Cr	      6.28394      4.21664      6.15876         0.093483     -0.297611      0.111678
Fe	      2.11652      4.18404      2.19809         0.001695     -0.034313     -0.170198
Cu	      2.18132      8.33953      6.19290        -0.156912      0.331201     -0.005758
Cu	      4.12379      2.10600      6.17856         0.001824     -0.088114      0.082044
Ni	      4.20731      8.30764      8.35092        -0.009339      0.077171      0.194178
Ni	      4.15923      6.28310      6.20853         0.389204      0.035060     -0.996334
O	      4.14969      6.27098      4.31834        -0.198556      0.019049     -0.015016
O	      2.11247      2.03092      2.19466        -0.055400      0.125509      0.170761
O	      4.29888      4.18285      2.11722        -0.486441     -0.067786      0.021336
O	      4.35703      2.07201      4.19370        -0.016658     -0.067056      0.045939
O	      6.33084      4.03660      4.12673        -0.044511      0.079905     -0.325741
O	      6.47185      2.19860      6.10469        -0.105858     -0.063587      0.108865
O	      8.29355      4.28282      6.39508         0.072128     -0.233201     -0.237983
O	      2.06622      4.21736      4.02163        -0.020501     -0.027647      0.368196
O	      4.25678      4.11151      6.29776        -0.026953      0.377631      0.070626
O	      6.13269      6.18193      6.19927         0.117747      0.235681      0.358951
O	      6.21884      4.17561      8.22762        -0.218167      0.045136     -0.100059
O	      8.37129      6.32045      8.24064         0.002193      0.228168      0.047181
O	      2.14554      6.25788      6.42332        -0.238668     -0.149763      0.308171
O	      4.10865      8.32565      6.34055         0.147698     -0.097047     -0.158068
O	      4.04912      6.17383      8.24610         0.282718     -0.151358      0.275874
O	      6.33237      8.42937      8.39668         0.041357     -0.200135     -0.044004
O	      6.30678      6.40723     10.41590         0.035499     -0.100210      0.006927
O	      8.33807      8.36351     10.22053         0.037152     -0.026565     -0.348318
