# total energy = -219.22504377 eV
 
CRYSTAL
PRIMVEC
0.016802 6.197972 6.334539 
6.165091 0.023185 6.327787 
4.125818 4.143801 -0.000521 
PRIMCOORD
36 1
Li	      4.14358      4.15852      0.08282         0.014875     -0.000101      0.041032
Li	      4.11439      2.13679      2.19692         0.008646      0.044061      0.084404
Li	      4.07935      0.08007      4.20524         0.008185     -0.031091      0.019512
Li	      8.23587      4.21135      8.45820        -0.023218      0.028429      0.043007
Li	      4.13330      4.09989      4.33241         0.016360      0.003307     -0.062245
Li	      6.02165      4.21497      6.36747         0.065192     -0.028437     -0.017332
Li	      2.09941      6.15764      4.15376         0.005335      0.002235     -0.054278
Li	      4.17598      6.05462      6.33164        -0.049591      0.067649     -0.063785
Li	      4.15431      4.09982      8.26161        -0.012655     -0.039524     -0.018467
Ti	      8.25417      2.25974      6.33506         0.072780      0.442145     -0.134349
V	      6.29024     10.22780      8.42530        -0.085598      0.064245      0.102435
V	      6.15740      4.24571     10.55071        -0.025202     -0.032123     -0.055744
Cr	      2.10893      2.07668      4.23099        -0.019874      0.003293      0.000325
Fe	     10.16529      6.22916      8.42734         0.185583      0.003747      0.032249
Ni	      6.12706      2.04903      4.24686         0.071046     -0.006027      0.017599
Ni	      4.12508      2.10562      6.30792         0.068844     -0.175541     -0.004762
Ni	      2.11822      4.14186      6.29987        -0.158390      0.077328     -0.026475
Ni	      6.19050      6.16053      8.35275        -0.160692      0.095589     -0.083129
O	      2.06397      1.99945      2.10450         0.007941      0.031063     -0.060410
O	      4.32814      4.24489      2.12680        -0.043061     -0.105545     -0.009440
O	      4.10101      2.05037      4.25437        -0.066377      0.004990     -0.157998
O	      6.19392      4.18813      4.02499         0.050076      0.055583      0.012488
O	      6.26590      2.08395      6.34740         0.188869      0.015486      0.064961
O	      8.25774      4.07698      6.38390         0.004881     -0.526804      0.000178
O	      1.96962      4.08822      4.24944         0.022880      0.018253     -0.119007
O	      4.19246      6.38545      4.12510        -0.022466     -0.114909      0.086609
O	      4.09052      4.12017      6.30816         0.114703      0.127498     -0.016273
O	      6.19499      6.23760      6.26195        -0.192718     -0.192239      0.052747
O	      6.14245      4.12118      8.55168        -0.006471      0.015160     -0.030360
O	      8.25292      6.19928      8.39824        -0.106383     -0.013770      0.082243
O	      2.08132      6.25188      6.56259         0.022411      0.120090     -0.062655
O	      4.08042      8.29786      6.20835        -0.143188      0.005938      0.116682
O	      3.97032      6.21142      8.43791         0.164329      0.009286     -0.003983
O	      6.16734      8.38057      8.48109         0.004459     -0.077293     -0.026696
O	      6.17198      6.09639     10.44045         0.025144      0.095245      0.077463
O	      8.26180      8.23722     10.73821        -0.006659      0.012783      0.173452
