# total energy = -227.94144485 eV
 
CRYSTAL
PRIMVEC
0.010974 6.056901 6.442579 
6.391150 0.017407 6.435675 
4.260639 4.032935 0.011983 
PRIMCOORD
36 1
Li	      6.39721      6.06095     12.82605         0.103294     -0.014111     -0.034112
Li	      2.18083      0.05667      2.20733         0.022535      0.004877      0.014531
Li	      2.10585      4.01801      2.32942        -0.009593     -0.006253      0.030779
Li	      4.11112      4.06371      4.39702        -0.013587     -0.046884      0.019013
Li	      6.30274      4.09217      6.42506        -0.060822      0.005542      0.037201
Li	      0.11271      3.99863      4.27540        -0.069399      0.064587     -0.031195
Li	      2.21868      4.01341      6.30745        -0.047980      0.084547      0.069712
Li	      4.33988      5.99617      6.38272        -0.005417     -0.018268      0.061524
Li	      6.37200      6.00938      8.55994         0.014093     -0.032840      0.016533
Ti	      4.42310      8.16894      8.49573         0.217899     -0.034495     -0.200036
V	      2.12445      1.98982      0.06702         0.016620     -0.515535     -0.103171
V	      4.25554      6.06007      2.19954        -0.014363      0.148118     -0.129074
Cr	      4.33022      6.08460     10.71893        -0.202983     -0.049420     -0.185949
Fe	      6.40176      2.08594      4.35545         0.039719      0.136359     -0.057101
Fe	      8.36346      6.09127      6.50948         0.137985     -0.037221      0.010836
Co	      2.08766      5.92075      4.29011         0.090054     -0.008595     -0.056715
Co	      4.26007      4.10505      8.48344        -0.021038      0.087265      0.039257
Cu	      6.26571      6.05296      4.45028         0.014366      0.002792      0.070518
O	      2.09479      2.05117      2.00347         0.068381      0.016845     -0.029821
O	      4.28328      4.05309      2.13872        -0.012100     -0.056110     -0.025638
O	      4.38404      2.03937      4.29319         0.014920     -0.016490     -0.002412
O	      6.54695      4.07209      4.30969         0.059484     -0.091004      0.022584
O	      6.47542      2.02313      6.45593        -0.047340      0.006813      0.032233
O	      8.57106      3.95371      6.29642         0.030460      0.088513      0.041424
O	      2.06330      3.95998      4.33122         0.031838      0.057407     -0.038449
O	      4.20326      6.00188      4.09690        -0.110719     -0.020791      0.100048
O	      4.24880      3.99428      6.48447         0.011648     -0.004471     -0.055433
O	      6.48827      6.03313      6.50382        -0.106269      0.016484      0.036242
O	      6.35282      3.86363      8.56121        -0.003384     -0.146075      0.038727
O	      8.64494      6.00426      8.51842        -0.006690     -0.006640      0.055010
O	      2.16890      6.23917      6.36410        -0.044332      0.330406     -0.017615
O	      4.18089      8.07898      6.64359         0.004472      0.037237      0.214944
O	      4.27519      6.20457      8.70703         0.015159      0.064971      0.031224
O	      6.30514      8.14995      8.67262        -0.296504      0.008082     -0.011008
O	      6.35629      6.15091     10.70748         0.097462     -0.124033      0.065899
O	      8.46014      8.10436     10.76631         0.082129      0.068392     -0.030510
