# total energy = -92.81091355 eV
 
CRYSTAL
PRIMVEC
2.011378 4.035133 2.011424 
2.055693 -4.079283 2.055697 
4.071528 -0.000026 -4.071593 
PRIMCOORD
16 1
Li	      5.95179     -0.01763     -1.96763         0.030493      0.102601     -0.460052
Li	      4.00366      1.95551      1.95037        -0.075664      0.228296      0.066899
Li	      4.00843     -0.01911     -0.02206        -0.283438      0.122796     -0.103719
Li	      3.97932     -1.99635     -1.96079        -0.121941     -0.003180     -0.114998
Mn	      7.96456     -0.04334      0.00473         2.847838     -0.072433      0.087311
Mn	      4.00881     -2.02011      1.98856         0.187367     -1.760992      0.981546
Ni	      5.99424     -0.04314      1.97530         0.457790      0.070111      1.184441
Ni	      5.97948     -2.02003      0.01851         0.849143     -0.904511     -0.314084
O	      6.12343     -0.02042      0.00070        -0.489500      0.595431     -0.532732
O	      3.83497      1.95546     -0.02159         0.488396      0.369353     -0.027473
O	      3.98301     -0.02184     -2.14045        -0.221317     -0.047901     -0.611915
O	      3.98939     -0.15504      2.09730        -0.544734      0.880176      0.385182
O	      4.00455     -1.99765      0.14728        -0.434428     -0.075931     -1.131275
O	      1.97889      2.08982      1.87057        -0.568086      0.665367      0.598872
O	      1.88551      0.11292     -0.00655        -0.921159      0.091398     -0.167258
O	      2.11164     -2.13273      2.00401        -1.200759     -0.260584      0.159255
