# total energy = -227.58080248 eV
 
CRYSTAL
PRIMVEC
0.009512 6.290068 6.236500 
6.374640 0.003355 6.242538 
4.250502 4.198129 0.001862 
PRIMCOORD
36 1
Li	      6.40433      4.19756      2.15823        -0.058731      0.006208     -0.018217
Li	      0.08061      2.10119      2.06225         0.060258     -0.077547      0.016095
Li	      2.11929      4.15148      2.04997         0.083951     -0.024932      0.008812
Li	      6.35545      6.14402      4.20275         0.025499     -0.004465      0.030787
Li	      4.45111      4.19502      4.23188         0.056440     -0.003098     -0.005690
Li	      6.31244      4.24211      6.13485        -0.060391      0.080255     -0.050293
Li	      2.27675      4.16506      6.26876        -0.010518      0.030399     -0.017166
Li	      4.30072      6.12348      6.25364         0.029452     -0.055929      0.038358
Li	      4.20308      4.25359      8.20992        -0.042824      0.047804     -0.020330
Ti	      2.22720      6.19947      4.12516         0.031547     -0.209758      0.090407
V	      4.18821      2.17829      2.13151         0.055947      0.006461      0.046889
V	      6.39110      4.17629     10.35519         0.058063      0.031419     -0.079341
Cr	      8.44896      2.13785      6.27030        -0.014080     -0.118453      0.020806
Fe	      4.24748      2.21578      6.23533        -0.027049     -0.166616      0.020017
Fe	      6.33957      6.35811      8.21284        -0.055963     -0.095380      0.115472
Co	      4.23452      4.21885      0.04634         0.055758      0.009822     -0.247832
Co	      6.34611      2.22484      4.16018         0.000232      0.089505     -0.074137
Ni	      8.40138      4.23197      4.16482         0.089226     -0.013452     -0.034749
O	      2.23842      2.08258      1.99963        -0.060684      0.018578     -0.070418
O	      4.27774      3.97051      2.10981        -0.057860      0.152434      0.082774
O	      4.21839      2.07627      4.13943         0.047566      0.087310     -0.115077
O	      6.42675      4.17604      4.14219        -0.121057     -0.159439     -0.004149
O	      6.39032      2.07864      6.27954         0.004770     -0.406952      0.007888
O	      8.54788      4.19572      6.22769         0.518655      0.023785      0.129479
O	      1.98101      4.32126      4.21028        -0.021314      0.220656     -0.028520
O	      4.13176      6.37347      4.13038        -0.190172      0.026555      0.032437
O	      4.27332      4.09145      6.25041         0.045728      0.192751      0.015093
O	      6.48935      6.26228      6.30749         0.005783     -0.028183     -0.115468
O	      6.34633      4.26111      8.56224        -0.013135     -0.017929      0.080445
O	      8.42001      6.29721      8.39884         0.064960     -0.020392      0.148215
O	      2.07827      6.39486      6.07791        -0.431033      0.034313     -0.053535
O	      4.12712      8.40355      6.15363        -0.029692      0.326441      0.036918
O	      4.33436      6.45221      8.30860        -0.050481     -0.010707     -0.073440
O	      6.25550      8.32779      8.33020         0.033748      0.115968      0.051316
O	      6.44555      6.24469     10.35068         0.005799      0.014100     -0.022123
O	      8.58493      8.35071     10.45035        -0.028397     -0.101533      0.058277
