# total energy = -229.42607336 eV
 
CRYSTAL
PRIMVEC
0.007239 6.075015 6.403034 
6.301457 0.003117 6.408284 
4.208135 4.059601 -0.004749 
PRIMCOORD
36 1
Li	      4.13008      4.01484      0.05890         0.018498      0.002208      0.012334
Li	      4.20179      2.04854      2.16333         0.040911     -0.040231      0.003820
Li	      8.33762      4.02894      4.29928         0.013313      0.005593      0.013947
Li	      6.30258      2.11344      4.21333         0.014384     -0.007060     -0.021006
Li	      8.45539      4.05846      8.47905        -0.022038     -0.031742     -0.026812
Li	      4.26878      4.00746      4.28614         0.006364      0.001824     -0.019206
Li	      6.35185      4.02822      6.30997         0.092914     -0.049973     -0.092811
Li	     10.47473      8.14613     10.73759        -0.032528      0.020014      0.047415
Li	      8.40371      8.11174      8.54282        -0.040167     -0.007952      0.017236
Ti	      8.33741      6.10438     10.68355        -0.196963      0.240093      0.038780
V	      4.22337      6.06565      2.13335         0.149743     -0.311926     -0.111629
V	      6.26307      6.00960      8.56382        -0.297914      0.191630     -0.020624
Cr	      2.11909      2.03453      4.26023         0.048833      0.023605     -0.027072
Fe	      4.28864      1.99481      6.25523        -0.027836      0.085109      0.064808
Fe	      4.20265      6.03993      6.42970         0.184096      0.065694      0.056107
Co	      6.27285      8.10294      6.39026        -0.034870     -0.020467      0.116949
Co	      8.42119      2.17512      6.36159        -0.105621      0.121577      0.090431
Co	      6.35761     10.05899      8.61082        -0.137720     -0.015292      0.128622
O	      1.99678      2.08184      2.24881        -0.064161     -0.004140     -0.092535
O	      4.25013      4.25877      2.13348         0.036940      0.111252     -0.009735
O	      4.11112      2.04008      4.32716        -0.042588     -0.006600     -0.091707
O	      6.31697      4.11921      4.19338         0.008099      0.024743     -0.116226
O	      6.27374      2.08264      6.58601         0.002506      0.051344      0.066038
O	      8.45307      4.15071      6.42185         0.006457     -0.157513      0.005197
O	      2.10298      4.10764      4.32191        -0.012354      0.079094      0.117138
O	      4.20736      6.10854      4.20835        -0.026947      0.015413      0.039389
O	      4.13026      4.02949      6.41537        -0.505077      0.002338     -0.061741
O	      6.28831      5.99356      6.40055        -0.014691      0.015763     -0.044710
O	      6.31361      4.11236      8.55330         0.008843      0.072302     -0.004806
O	      8.44517      6.08160      8.64491        -0.045961     -0.010299      0.030946
O	      2.17301      6.14035      6.31577        -0.024679      0.043071      0.032038
O	      4.21446      8.02519      6.42572         0.532099     -0.015292     -0.020701
O	      4.29830      6.03338      8.44685         0.157420     -0.064123     -0.004534
O	      6.30959      7.90589      8.47916         0.037272     -0.066129     -0.102563
O	      6.41536      6.07549     10.52241         0.232979      0.022032     -0.102543
O	      8.39765      7.99081     10.68467         0.040444     -0.385960      0.089763
