# total energy = -222.39939206 eV
 
CRYSTAL
PRIMVEC
-0.017316 6.458985 6.123407 
6.263787 -0.044487 6.149912 
4.147505 4.295229 -0.000892 
PRIMCOORD
36 1
Li	      0.13932      6.43608      6.16906        -0.005580      0.004866      0.021466
Li	      2.10444      8.45234      6.19416         0.013047      0.025706      0.034548
Li	      4.22545      6.39410      2.11535         0.001414      0.000875     -0.034093
Li	      1.95569      2.31050      4.06516         0.019464      0.035587      0.001022
Li	      3.97903      4.47107      4.06118        -0.004892      0.065401      0.040299
Li	      2.16412      6.28912      4.17457        -0.027279     -0.000913     -0.017951
Li	      2.08188      4.42645      6.05363         0.059566      0.028427      0.039362
Li	      4.18341      4.22581      8.14754        -0.016840     -0.054954     -0.052487
Li	      6.24819      6.38897      8.14832         0.013372     -0.022472     -0.009666
Ti	      6.32549      8.47688     10.17402         0.028940     -0.054730     -0.220507
V	      4.17702      6.41125     10.16635         0.129318     -0.088437     -0.107052
V	      8.24771      6.45615      6.23131        -0.025306      0.127580      0.118423
Cr	      4.17436      8.55808      4.09871        -0.039285      0.091883      0.001815
Fe	      4.10805      2.29094      1.90705         0.087598     -0.092792      0.171745
Fe	      6.16728      4.27393      6.22532        -0.061341     -0.034401     -0.141854
Cu	      2.02726      0.07241      2.01450        -0.024080      0.025717     -0.028817
Cu	      4.13561      6.46554      6.10641         0.085436      0.004289      0.073935
Ni	      2.07599      4.25011      2.06294         0.006792      0.097766     -0.034821
O	      2.18859      6.45542      6.23147        -0.066202      0.021106     -0.101296
O	      2.18851      2.18836      2.06652        -0.078604      0.066833     -0.031038
O	      4.12093      4.22582      2.06974         0.070697      0.073726      0.009479
O	      4.28182      1.97335      4.16214         0.034764     -0.047737     -0.057438
O	      6.32519      4.08973      4.07278        -0.008896     -0.108275      0.093398
O	      6.15067      2.20010      6.04560         0.010873     -0.050812     -0.103947
O	      8.22114      4.36636      5.99999         0.015734     -0.021873     -0.066182
O	      1.96709      4.33753      4.06191        -0.059149      0.023359      0.144078
O	      4.10286      6.60068      4.13148         0.005844      0.089771     -0.093218
O	      4.19219      4.08213      6.10678        -0.100752     -0.207768     -0.042995
O	      6.25213      6.27116      6.09935         0.040737     -0.010008     -0.001384
O	      6.25987      4.25170      8.18282        -0.112566      0.004525      0.147406
O	      8.31293      6.33350      7.99953        -0.007107      0.022612     -0.107134
O	      4.17073      8.69663      6.11172        -0.009682      0.148605     -0.163787
O	      4.18596      6.50369      8.33172         0.011734     -0.040154      0.172627
O	      6.15038      8.52975      8.30929         0.097555     -0.147332      0.315331
O	      6.18382      6.47674     10.25654         0.067041      0.106578      0.012083
O	      8.28653      8.69231     10.22374        -0.152367     -0.082555      0.018651
