# total energy = -222.26566709 eV
 
CRYSTAL
PRIMVEC
-0.012408 6.336864 6.253499 
6.332939 0.042531 6.197269 
4.254190 4.220278 -0.003658 
PRIMCOORD
36 1
Li	      2.23783      6.38679      8.31168        -0.133672     -0.105134      0.028335
Li	      4.21648      8.30324      8.29698         0.087130      0.143762      0.036629
Li	      6.27371      2.28065      8.34854         0.047114     -0.042165     -0.104091
Li	      8.31682      4.33318      8.34122         0.072964     -0.058291      0.065976
Li	      2.02038      2.23742      4.11989         0.062201     -0.011419     -0.064651
Li	      8.34122      6.37393      6.32151         0.137396      0.052968     -0.013321
Li	      0.13356      4.13512      4.08884         0.004845      0.074931      0.058910
Li	      6.44675      8.26351      6.16762        -0.004163      0.037740      0.038281
Li	      6.36484      6.27469      8.20352         0.065116      0.186760      0.046364
Ti	      2.17011      2.14772      0.17967        -0.013173     -0.223650      0.153352
V	      4.22898      4.26648      0.18847         0.209036      0.038533     -0.278179
V	      6.29224      8.46643     10.22570         0.347319      0.070168      0.173459
Cr	      4.20049      4.22557      4.09627         0.268766     -0.300469     -0.294983
Fe	      6.24768      4.36233      6.30029         0.157814     -0.556608     -0.416866
Fe	      2.16651      6.27894      4.09359        -0.446240      0.224167      0.172361
Cu	      4.19633      6.39082     10.24802        -0.000894     -0.022410      0.216673
Cu	      4.29374      6.33137      6.27141         0.082835      0.102797     -0.196219
Cu	      4.31029      4.25633      8.28204        -0.277649     -0.163975      0.065844
O	      4.24865      6.23783      8.23335         0.062442      0.100739      0.272609
O	      2.14729      2.10627      1.99184         0.003228      0.009395     -0.308898
O	      4.24710      4.27869      1.96800        -0.071138      0.025314      0.189991
O	      4.45132      2.17445      4.08173        -1.194942     -0.403002     -0.051316
O	      6.25621      4.04111      4.18443        -0.005914      0.981212      0.155906
O	      6.43644      2.13634      6.17208         0.033085      0.067713      0.233528
O	      8.52005      4.19496      6.19150        -0.240318      0.140244     -0.287842
O	      2.19432      4.31001      4.13758        -0.027138     -0.088880     -0.023497
O	      4.16496      6.26098      4.22595         0.081368      0.047469      0.284828
O	      4.26951      4.11739      6.04313        -0.012791      0.126044      0.042378
O	      6.36996      6.25165      6.14536        -0.391940      0.253324      0.095617
O	      6.31606      4.25272      8.22685        -0.051595      0.059445      0.048016
O	      8.44469      6.50162      8.39386         0.073205     -0.013628     -0.158198
O	      1.98057      6.48104      6.23972         0.243774     -0.014353      0.052535
O	      4.09987      8.64820      6.20496        -0.088695     -0.129974      0.056707
O	      6.39223      8.43771      8.47812         0.068755      0.014218     -0.816612
O	      6.39520      6.56912     10.58130        -0.106834     -0.904820      0.196117
O	      8.22597      8.44339     10.52464         0.958701      0.281833      0.330258
