# total energy = -228.51732187 eV
 
CRYSTAL
PRIMVEC
-0.004937 6.287553 6.293448 
6.249085 0.000479 6.288285 
4.170979 4.193227 -0.004799 
PRIMCOORD
36 1
Li	      6.19414      0.07821      6.28130        -0.039555      0.038193      0.025616
Li	      6.12660      2.22902      4.32710        -0.001264      0.019350     -0.028397
Li	      6.20979      2.12894      8.33110        -0.022160      0.031912     -0.054267
Li	      6.29178      6.14266      4.25309         0.052613      0.014810      0.023353
Li	      4.32178      4.12227      4.22046        -0.041585     -0.052056      0.003324
Li	      4.28737      2.09968      6.16077        -0.015525      0.009746     -0.015860
Li	      6.18753      4.17613      6.15212        -0.046244      0.061166      0.033747
Li	      4.20701      6.25064      6.29042         0.068150     -0.049940      0.064372
Li	      6.23954      6.20447      8.38505        -0.012570     -0.000559     -0.067076
Ti	      6.35000      8.19405      6.28425         0.335578     -0.837711      0.114798
V	      4.20436      8.34123      4.21855        -0.141623     -0.023617     -0.109380
V	      8.29299      6.30914     10.51828         0.020399      0.101550     -0.149493
Cr	      6.21807      4.21111      2.10269        -0.053069      0.084203      0.156310
Fe	      8.14214      2.13805      6.29009         0.090579      0.081106     -0.078111
Fe	      4.17747      2.08323      2.21346        -0.048930     -0.071818     -0.108850
Fe	      8.34560      4.28385      8.27555         0.060467      0.044019      0.077608
Co	      4.21510      4.18814      8.33366         0.009529     -0.058174      0.103643
Ni	      8.29576      4.24174      4.21662         0.033797     -0.001698      0.095899
O	      2.14385      2.08856      2.01623        -0.026704     -0.028670      0.048232
O	      4.13795      4.10484      2.12211         0.059587      0.107861     -0.036100
O	      4.19133      2.04847      4.11237        -0.001603      0.147511      0.019011
O	      6.26608      4.20351      4.05738        -0.135332     -0.011821     -0.055034
O	      6.29214      2.11432      6.28295        -0.067424     -0.032505     -0.003359
O	      8.32349      4.14167      6.34350         0.034494     -0.016797     -0.064717
O	      2.02703      4.22062      4.24791         0.087770     -0.037790      0.037189
O	      4.07765      6.49055      4.21553        -0.009522     -0.074936      0.063578
O	      4.06296      4.20964      6.31346        -0.282928     -0.007431      0.068996
O	      6.26023      6.38879      6.29720         0.036733      0.752892      0.007743
O	      6.34812      4.18867      8.53649        -0.044141      0.007487     -0.033313
O	      8.34055      6.27344      8.52431        -0.002105      0.005919      0.002779
O	      2.07483      6.34688      6.27309         0.003489     -0.119263      0.080989
O	      4.26068      8.39074      6.22818        -0.044805     -0.015108      0.177643
O	      4.07034      6.28324      8.41422        -0.001537      0.071792     -0.165649
O	      6.19005      8.47742      8.24906         0.045064     -0.067806     -0.095235
O	      6.28026      6.10039     10.49656         0.063148      0.020715      0.032375
O	      8.41618      8.40329     10.49354         0.037229     -0.092533     -0.172363
