# total energy = -230.12908989 eV
 
CRYSTAL
PRIMVEC
-0.004360 6.367474 6.092178 
6.349084 -0.001403 6.089074 
4.238510 4.248872 -0.006909 
PRIMCOORD
36 1
Li	      6.30711      4.23880      2.09568        -0.020547      0.008894      0.007668
Li	      4.22734      2.18632      2.08726        -0.019178      0.028616      0.022638
Li	      6.33306      8.43459     10.06203        -0.040551     -0.011261     -0.015489
Li	      4.16691      6.29109      2.16653        -0.032579     -0.034743      0.040628
Li	      4.25949      4.28239      3.95212        -0.003721      0.009873     -0.021076
Li	      6.30826      4.24098     10.09877         0.031586     -0.002951     -0.015116
Li	      8.46922      6.41856     10.02117         0.017544     -0.013612     -0.021838
Li	      8.46111      8.46197      8.20712        -0.000821     -0.015947     -0.002564
Li	      6.42499      6.36525      8.20560         0.057455     -0.011882      0.035469
Ti	      2.07333      8.38001      6.07301        -0.201385     -0.023460      0.016979
V	      6.28243      4.17661      6.12348        -0.042179      0.136963      0.103960
V	      6.29881      8.48557      6.11650        -0.132742      0.012334     -0.097866
Cr	      2.17343      4.27514      2.09652         0.100690      0.061522     -0.059728
Fe	      4.33866      6.39075      9.97795        -0.092274      0.137140      0.140974
Fe	      4.23437      2.14896      6.11191         0.039177     -0.187430     -0.060829
Fe	      4.24660      6.36442      6.07619        -0.003571     -0.064367      0.059665
Co	      2.08103      2.11829      4.01436         0.012946      0.051634     -0.126471
Co	      0.00365      6.36996      6.08736        -0.124927     -0.004898      0.053396
O	      2.13242      2.21423      1.89781        -0.017605     -0.048756     -0.102537
O	      4.14468      4.24783      1.93533         0.071982      0.044840      0.087124
O	      4.18165      2.02026      4.10162         0.098598     -0.011707     -0.158253
O	      6.42521      4.27491      4.24184         0.007739     -0.079023      0.065049
O	      6.45710      2.20369      6.07015         0.247612      0.152573      0.013582
O	      8.38349      4.13058      6.14021        -0.080258     -0.175312     -0.074055
O	      2.14288      4.23356      4.16140         0.035428      0.048194      0.148243
O	      4.30363      6.37892      4.14052        -0.065369     -0.005105      0.027204
O	      4.26456      4.30667      6.09272         0.091029      0.028988      0.017288
O	      6.26721      6.41511      6.14331        -0.015298      0.062046     -0.035013
O	      6.44360      4.25807      7.95145        -0.056315     -0.010634     -0.100337
O	      8.47436      6.26024      8.08339         0.000121     -0.047012      0.185308
O	      2.14900      6.40326      6.06737         0.028226      0.127498     -0.007678
O	      4.26000      8.46408      6.07723         0.002638     -0.070851     -0.026289
O	      4.19771      6.34829      8.09094        -0.018158     -0.013284     -0.147415
O	      6.36861      8.54021      7.87265         0.037387     -0.004148     -0.010352
O	      6.26123      6.39262     10.23858         0.111868      0.006495     -0.131107
O	      8.47835      8.59124     10.26468        -0.024548     -0.081229      0.188837
