# total energy = -225.67689245 eV
 
CRYSTAL
PRIMVEC
0.040004 6.349534 6.172008 
6.333542 0.026329 6.186027 
4.233174 4.253029 0.006923 
PRIMCOORD
36 1
Li	      0.12374      6.33291      6.08396         0.020688      0.015012     -0.044410
Li	      8.50068      8.41936     12.21763         0.003138     -0.052290     -0.008730
Li	      6.48396      8.51587     10.31808        -0.039242     -0.034956      0.010302
Li	      2.10947      4.25301      2.15615        -0.002339      0.078160      0.080062
Li	      2.07549      2.20845      4.14224        -0.034931      0.054931      0.075039
Li	      4.27267      8.43661      4.22958         0.027510      0.013021      0.016747
Li	      2.17842      6.38273      4.26457         0.024153     -0.035660      0.002677
Li	      2.04916      4.33995      6.07321        -0.049137      0.038872      0.013044
Li	      4.18322      6.42962      6.07584         0.002902      0.025422     -0.006923
Ti	      4.13106      2.18534      1.93359        -0.096411      0.008418     -0.517018
V	      6.40789      6.40749      8.33096         0.112134     -0.004972     -0.190310
V	      8.47565      6.32827      6.15702        -0.082769      0.033432      0.059082
Cr	      6.38125      4.23963      6.14863        -0.005391      0.051974      0.073536
Fe	      2.17948      6.31233      8.14748         0.060873     -0.061893      0.143642
Fe	      0.07564      2.20972      2.11607         0.013567     -0.136546      0.023685
Fe	      4.08988      4.29043      4.17776         0.139282      0.071768      0.002865
Cu	      8.49422      8.49474      8.29595        -0.026654     -0.003756     -0.134927
Ni	      8.46498     10.55558     10.31557         0.135088      0.081133      0.024336
O	      2.17854      2.04799      2.06742         0.051567      0.066356      0.036545
O	      4.30831      4.17893      2.11292        -0.072668     -0.012605     -0.030958
O	      4.23623      2.18387      4.12588         0.029373     -0.021908     -0.133673
O	      6.30747      4.25105      4.11137        -0.046499     -0.047160      0.023124
O	      6.31791      2.21151      6.31503         0.005988     -0.013016     -0.135394
O	      8.38168      4.36199      6.14493        -0.014204     -0.086004      0.129342
O	      2.23361      4.23294      4.15016        -0.214457     -0.007075     -0.029942
O	      4.25479      6.30363      4.01432         0.006124      0.018101      0.152419
O	      4.34409      4.16146      6.21361         0.027511     -0.002954      0.007670
O	      6.37521      6.25658      6.35903        -0.002587     -0.045789     -0.011885
O	      6.40092      4.26324      8.18278         0.111646      0.119567     -0.026836
O	      8.41962      6.37126      8.17253         0.034705     -0.182521      0.132258
O	      2.16405      6.33502      6.30267        -0.008635      0.047967     -0.250493
O	      4.23366      8.52401      6.30223        -0.035244     -0.004614      0.413769
O	      4.29952      6.51373      8.25262         0.014337      0.139284     -0.072479
O	      6.25529      8.40685      8.21958        -0.122273     -0.026625      0.030972
O	      6.34883      6.33742     10.10983         0.040267      0.047701      0.051322
O	      8.48070      8.55643     10.19654        -0.007415     -0.130775      0.091540
