# total energy = -225.21254230 eV
 
CRYSTAL
PRIMVEC
-0.001695 6.388378 6.134232 
6.319699 -0.013292 6.146366 
4.202843 4.256311 0.001437 
PRIMCOORD
36 1
Li	      8.43962      8.47296     12.14115        -0.028058     -0.032637      0.095078
Li	      8.51801     10.44822     10.19310         0.011737      0.004619     -0.057671
Li	      4.14643      6.45883      2.22408        -0.016324      0.032411     -0.089285
Li	      6.10910      6.44077      4.08068        -0.034883      0.053511     -0.013156
Li	      4.16212      4.44411      4.07134        -0.028478      0.015546      0.013856
Li	     10.34508      8.37423     10.19437         0.038546      0.029611      0.007461
Li	      8.52722      6.53062     10.15791        -0.100417     -0.046093      0.013461
Li	      8.49127      8.46424      8.33820        -0.011511     -0.038231     -0.137738
Li	      6.35285      6.29564      8.31905         0.021270     -0.034696      0.029917
Ti	      4.22372      2.12449      6.08918        -0.020780      0.134672      0.009351
V	      6.32268      4.33663      2.17188        -0.063989      0.040263     -0.123848
V	      2.12933      4.25305      6.05053         0.052914      0.022984     -0.083745
Cr	      4.21724      2.12940      2.10101         0.014662     -0.051435      0.104870
Fe	      6.32743      6.35998     12.15363         0.043959      0.081384      0.258762
Fe	      2.04402      4.32501      2.19580         0.090670     -0.185362     -0.006543
Fe	      6.31141      4.23244      6.19040        -0.085107     -0.015216     -0.127145
Cu	      6.44975      8.38869     10.18840        -0.104427     -0.022292     -0.008538
Cu	      4.16460      6.44564      6.05418        -0.021473     -0.036317      0.119929
O	      8.34002      8.50335     10.22360         0.121856      0.001330     -0.008881
O	      2.21360      2.05966      2.06434        -0.082226      0.195125      0.011656
O	      4.21394      4.17553      2.01355        -0.025623      0.013823      0.012852
O	      4.36955      2.06433      4.13007        -0.031684     -0.004631      0.032392
O	      6.30384      4.23330      3.98200         0.003719      0.076836      0.103250
O	      6.19510      2.17347      6.23021        -0.035730     -0.032600      0.086403
O	      8.39165      4.32227      6.20105         0.070031     -0.025750     -0.041137
O	      2.13202      4.22209      4.09626         0.018474     -0.033759      0.056405
O	      4.17547      6.38621      4.18952        -0.019259      0.035414     -0.098771
O	      4.21315      4.10611      6.16469         0.085501     -0.168636     -0.041101
O	      6.43748      6.31695      6.08983         0.098661     -0.015026     -0.022315
O	      6.39440      4.23555      8.11403        -0.099461      0.032889      0.093457
O	      8.41029      6.25600      8.06139         0.000578      0.118192     -0.023096
O	      1.99918      6.36060      6.28727         0.002767      0.073364     -0.024057
O	      4.30104      8.61462      6.19506        -0.102866      0.051530      0.007101
O	      4.07513      6.51692      8.05388         0.145175     -0.090420      0.058925
O	      6.23263      8.66888      8.04337         0.068151     -0.036851      0.057582
O	      6.31711      6.38393     10.30436         0.023627     -0.143555     -0.265680
