# total energy = -226.05839173 eV
 
CRYSTAL
PRIMVEC
0.023709 6.199804 6.247414 
6.355221 0.011699 6.260052 
4.253553 4.158659 -0.009123 
PRIMCOORD
36 1
Li	      4.11611      3.97456      0.07409        -0.023681      0.001050      0.004998
Li	      2.24507      2.22557      0.02727        -0.010927     -0.053521      0.020946
Li	      2.06925      6.23020      8.20676        -0.030460      0.012790     -0.040444
Li	      4.24991      8.33649      8.21964        -0.000118     -0.017419      0.041296
Li	      8.54283      4.14231      4.26577        -0.005682      0.013780     -0.035545
Li	      8.56298      4.11625      8.18939         0.004144     -0.023766      0.027567
Li	      4.22616      8.33211      4.28757        -0.040298      0.014209     -0.011818
Li	      6.29665      8.36110      6.28441        -0.077418     -0.019204      0.021346
Li	      4.23566      4.16424      8.27933        -0.016965      0.027746      0.026333
Ti	      6.47383      8.30254     10.39555         0.196249      0.049865     -0.065797
V	      6.34832      6.13376      8.32639        -0.060508      0.003763      0.031701
V	      2.15186      2.11370      4.12040         0.037555     -0.016612     -0.068377
Cr	      4.25935      4.13540      4.15823         0.014508     -0.024778     -0.115485
Fe	      6.38053      1.99414      8.22384        -0.021010      0.104626      0.066619
Fe	      2.12532      6.16978      4.23113         0.015208     -0.040026     -0.029967
Fe	      4.17085      6.33281      6.34117         0.052021     -0.125103     -0.046624
Ni	      8.50573      6.20025      6.27049        -0.032717      0.065331      0.001765
Ni	      6.44004      4.14774      6.25894         0.008366      0.005128     -0.008606
O	      1.98780      2.08515      2.19233         0.073131     -0.025953     -0.022226
O	      4.25976      4.22743      2.13152        -0.020751     -0.102804      0.052539
O	      4.28000      2.14288      4.17678         0.077688      0.028497     -0.098862
O	      6.31287      4.12176      4.13758        -0.014533     -0.073989     -0.076744
O	      6.31504      2.08532      6.21590         0.087604     -0.090917     -0.106550
O	      8.42768      4.21187      6.23031         0.147032     -0.123418     -0.002973
O	      2.25109      4.10310      4.19325         0.016057      0.021240     -0.008517
O	      4.24946      6.18046      4.12479        -0.033657      0.041491     -0.012765
O	      4.35725      4.18925      6.16204        -0.071541      0.073852      0.031834
O	      6.37282      6.23265      6.27159        -0.068378      0.107886      0.028221
O	      6.38616      4.28581      8.36177         0.005429     -0.017114      0.091014
O	      8.50528      6.25499      8.40997        -0.030644      0.002546      0.065001
O	      2.21919      6.17705      6.16341        -0.049095     -0.032569      0.089599
O	      4.26232      8.21093      6.23182         0.025139      0.121507     -0.015393
O	      4.41613      6.19305      8.28820         0.087968     -0.031774      0.110891
O	      6.39202      8.11186      8.47163         0.054740      0.001271      0.090398
O	      6.43331      6.27530     10.34389        -0.030678      0.043924     -0.021402
O	      8.32761      8.22875     10.43841        -0.263778      0.078465     -0.013973
