# total energy = -232.80837345 eV
 
CRYSTAL
PRIMVEC
-0.012750 6.379635 6.168508 
6.368045 0.000481 6.155261 
4.244316 4.243164 0.001384 
PRIMCOORD
36 1
Li	      6.33419     10.54054      8.19434        -0.011758     -0.075884     -0.011389
Li	      4.32062      8.52535      8.20207         0.118592      0.025889     -0.025138
Li	     10.47685      6.40567      8.25956        -0.065771      0.005451      0.035780
Li	      8.41595      4.42288      8.24711        -0.037551      0.124961      0.018312
Li	      8.43002      6.38090      6.25498        -0.067102      0.005161     -0.027804
Li	      6.41456      4.26642     10.16785         0.023635      0.019175      0.009246
Li	      8.49256      6.30091     10.17520         0.040145     -0.078886      0.037851
Li	      6.37403      8.45575      6.21928         0.021195     -0.070632      0.021860
Li	      6.47350      6.34108      8.19451         0.002136     -0.029117     -0.017207
Ti	      2.13447      2.10242      0.16855        -0.025502     -0.097762      0.161067
V	      4.24012      6.39341     10.18547        -0.002391      0.139839     -0.124090
V	      2.10210      2.21287      4.04696         0.127859     -0.183232      0.024095
Cr	      4.20719      4.26360      4.06249         0.054812     -0.017783     -0.109416
Fe	      4.27256      4.22489      0.13288         0.018963      0.012262     -0.159892
Fe	      6.34693      8.45333     10.17214        -0.032771      0.008396      0.214822
Fe	      4.27059      6.37069      6.22002        -0.056594      0.131637     -0.023590
Fe	      8.52430      8.31948      8.19877        -0.111347      0.221877      0.118097
Co	      6.36979      4.28213      6.27896         0.070529     -0.000547     -0.106261
O	      2.10979      2.12208      2.00540         0.049630     -0.040710     -0.163730
O	      4.25936      4.24508      2.02821         0.051520     -0.027459      0.242787
O	      4.28300      2.17256      4.10235        -0.079371     -0.015238      0.014369
O	      6.38874      4.29110      4.13241        -0.092775     -0.061066     -0.038745
O	      6.50600      2.08894      6.09401         0.042656     -0.024082      0.001243
O	      8.56099      4.12150      6.09065        -0.085419      0.020830     -0.008396
O	      2.23776      4.13518      4.08396        -0.023357      0.129508      0.042296
O	      4.27975      6.26130      4.18351        -0.016801      0.017127     -0.071190
O	      4.20202      4.34305      6.12793         0.034670     -0.128118     -0.081050
O	      6.26243      6.35266      6.05891         0.060801      0.073104     -0.009291
O	      6.25996      4.24082      8.22048         0.027693     -0.012237      0.085643
O	      8.46627      6.43663      8.19437        -0.005327     -0.162403      0.017888
O	      2.09367      6.52728      6.15537         0.050139      0.091517     -0.025223
O	      4.10429      8.49940      6.15473        -0.095435     -0.009826     -0.019321
O	      4.23795      6.32537      8.20748        -0.037804      0.046546      0.184638
O	      6.44264      8.50405      8.27897        -0.019844     -0.002700     -0.200557
O	      6.23752      6.46195     10.38920        -0.026945     -0.168083     -0.055801
O	      8.38232      8.57265     10.28950         0.098890      0.132486      0.048097
