# total energy = -93.08533398 eV
 
CRYSTAL
PRIMVEC
2.021640 4.055720 2.021686 
2.066181 -4.100096 2.066185 
4.092301 -0.000026 -4.092366 
PRIMCOORD
16 1
Li	      6.01268     -0.01781     -1.98776         0.012456      0.074200     -0.336971
Li	      4.04462      1.97551      1.97032        -0.052505      0.170791      0.041801
Li	      4.04944     -0.01930     -0.02228        -0.212994      0.087307     -0.077583
Li	      4.02003     -2.01677     -1.98085        -0.092927      0.000436     -0.082849
Mn	      8.04604     -0.04378      0.00478         2.122791     -0.046797      0.060484
Mn	      4.04981     -2.04077      2.00890         0.117107     -1.289898      0.699539
Ni	      6.05556     -0.04358      1.99551         0.316631      0.048324      0.864252
Ni	      6.04065     -2.04069      0.01870         0.620577     -0.650176     -0.234111
O	      6.18607     -0.02063      0.00071        -0.316337      0.447764     -0.406017
O	      3.87420      1.97546     -0.02181         0.340665      0.244089      0.013509
O	      4.02375     -0.02206     -2.16235        -0.134750     -0.065100     -0.464984
O	      4.03020     -0.15662      2.11875        -0.415385      0.616545      0.291157
O	      4.04552     -2.01809      0.14878        -0.328134     -0.022345     -0.791786
O	      1.99913      2.11120      1.88970        -0.398509      0.506271      0.427990
O	      1.90480      0.11407     -0.00662        -0.722596      0.083184     -0.098785
O	      2.13324     -2.15455      2.02451        -0.856091     -0.204596      0.094356
