# total energy = -230.50169044 eV
 
CRYSTAL
PRIMVEC
-0.016444 6.274026 6.418996 
6.270733 0.013211 6.389624 
4.183577 4.165950 0.005823 
PRIMCOORD
36 1
Li	      2.14692      6.20971      8.42815         0.062995     -0.047452     -0.035025
Li	      4.22822      6.22409     10.57637        -0.018764      0.020744     -0.069772
Li	      4.15975      4.18414      4.37409        -0.030397     -0.002233      0.044208
Li	      4.16215      2.17977      6.35879        -0.041629     -0.013709      0.012454
Li	     10.41977      8.42880     10.72563         0.058182      0.049160      0.015529
Li	      2.03639      6.27857      4.35623        -0.088576     -0.032574     -0.058619
Li	      2.11747      4.27317      6.44979        -0.015243      0.010422     -0.000610
Li	      4.10789      6.23480      6.44475         0.040718     -0.005638      0.054261
Li	      6.19061      6.32123      8.64274         0.006016     -0.003404      0.070688
Ti	      8.37137      4.32044      8.63306        -0.061075      0.474239      0.245861
V	      6.24275      6.20959      4.24601        -0.025855      0.011260      0.266430
V	      6.21635      4.26081      6.40014         0.079140      0.086437      0.055035
Cr	      6.24743      6.28718     12.77039        -0.068534      0.079825     -0.019717
Fe	      8.38866      8.29241     12.63490         0.029845      0.116790      0.015354
Fe	      4.25707      8.21352      8.53806         0.022316      0.126044     -0.016953
Fe	      6.20680      8.33378     10.61907         0.005754      0.206778     -0.091397
Fe	      8.29948      8.39164      8.59932         0.076153     -0.062957      0.080575
Ni	      4.20779      6.23872      2.17529        -0.112672      0.007804      0.029440
O	      2.10025      2.16017      2.19940         0.092413     -0.070412     -0.117667
O	      4.05812      4.15955      2.03139        -0.045241     -0.109335     -0.010355
O	      3.98127      2.10848      4.16729        -0.024787     -0.016273      0.001846
O	      6.25356      4.17415      4.42554        -0.021744      0.192162      0.007705
O	      6.33641      2.15874      6.44807        -0.025144     -0.054264     -0.034807
O	      8.33744      4.09458      6.54144         0.035184      0.014662     -0.014017
O	      2.09142      4.09633      4.13756        -0.024053     -0.094510     -0.204359
O	      4.40661      6.24996      4.21767         0.107348     -0.057979      0.099978
O	      4.33444      4.16494      6.48971        -0.117882     -0.067817     -0.080657
O	      6.31875      6.09565      6.26094         0.031338     -0.043070     -0.075880
O	      6.36619      4.16946      8.39368         0.237655      0.051752      0.047470
O	      8.39287      6.17865      8.58116        -0.050528     -0.385557     -0.029454
O	      1.97271      6.35539      6.40243         0.012282     -0.135271      0.046701
O	      4.09381      8.44394      6.48584         0.042629     -0.014300     -0.095349
O	      4.17020      6.33735      8.51840        -0.077625     -0.059476     -0.018637
O	      6.18627      8.37010      8.51031        -0.122145      0.032181     -0.079986
O	      6.21774      6.35177     10.81759        -0.023773     -0.232301      0.020459
O	      8.38628      8.35811     10.70246         0.055699      0.028274     -0.060734
