# total energy = -233.61832122 eV
 
CRYSTAL
PRIMVEC
0.050347 6.310463 6.263336 
6.428667 0.021476 6.292664 
4.290664 4.231424 0.008977 
PRIMCOORD
36 1
Li	      6.39881      0.12597      6.22599        -0.000094     -0.010704      0.039574
Li	      8.44141      2.17062      6.23024        -0.001040     -0.019800      0.007954
Li	      6.48703      2.03625      4.37334         0.020925     -0.025655      0.045788
Li	      8.54089      4.31432      8.21464         0.001299     -0.018184     -0.017005
Li	      8.68503      6.25250      6.37329         0.010408      0.032635      0.027742
Li	      6.57527      4.14075      6.33010         0.036083     -0.015010      0.025352
Li	      8.48009      6.39107     10.50381        -0.109175      0.020815      0.009590
Li	      4.25327      6.31711      6.26937        -0.039708     -0.008813     -0.033013
Li	      6.53818      6.28045      8.44116         0.041465      0.015141      0.010179
Ti	      4.30871      8.38662      8.26410         0.007924      0.037552     -0.118237
V	      6.45662      6.32699      4.30918         0.018075     -0.010911      0.070671
V	      8.59873      8.43322      8.35949        -0.028038     -0.030696     -0.065129
Cr	      6.44904      4.24182     10.46757         0.037513      0.008737     -0.002803
Fe	      2.18125      6.35531      8.29140         0.007443     -0.043501      0.018565
Fe	      8.66421      4.23745      4.39607        -0.089694      0.007551     -0.169914
Fe	      6.36872      2.10035      8.23587        -0.011189      0.004145      0.168775
Fe	      4.33115      4.22355      4.26828         0.036044     -0.019251      0.042944
Fe	      2.19548      4.33618      6.25923        -0.037667     -0.094944     -0.006832
O	      2.27555      2.17580      2.20697         0.139458      0.051227      0.027621
O	      4.28069      4.14062      2.18530        -0.076922     -0.067224     -0.082783
O	      4.20789      2.05744      4.05609        -0.033947     -0.018955     -0.076887
O	      6.50576      4.35374      4.13998         0.076231      0.083889      0.091569
O	      6.46922      2.11406      6.38041        -0.029457      0.029881     -0.085372
O	      8.56023      4.26130      6.24352         0.027634     -0.023583      0.093673
O	      2.07363      4.14526      4.24734        -0.063747     -0.079191     -0.045998
O	      4.48431      6.38896      4.07779         0.084551      0.051472      0.024903
O	      4.20358      4.24863      6.32071         0.026095      0.002519      0.071193
O	      6.47562      6.40133      6.08676        -0.014698      0.024989     -0.096192
O	      6.39155      4.16094      8.46470         0.010356      0.053568      0.024455
O	      8.67678      6.46715      8.40600        -0.063401     -0.042556      0.033505
O	      2.19523      6.25660      6.27955        -0.029230      0.063241     -0.164880
O	      4.38071      8.39833      6.33440         0.006920     -0.004371      0.134776
O	      4.34241      6.38431      8.37954         0.066045      0.175054      0.020489
O	      6.36810      8.39830      8.29987        -0.070660     -0.060623      0.017057
O	      6.39740      6.22817     10.47448         0.053146      0.013810     -0.020853
O	      8.70198      8.52733     10.38319        -0.008950     -0.082252     -0.020476
