# total energy = -211.81848615 eV
 
CRYSTAL
PRIMVEC
0.022794 6.224257 6.255466 
6.182680 0.038062 6.240302 
4.138026 4.155673 0.009014 
PRIMCOORD
36 1
Li	     10.27464      4.22120      6.29603        -0.049647      0.007909      0.029726
Li	      8.22806      2.15223      6.25073        -0.013348      0.025084      0.016771
Li	      4.10189      2.11565      2.08743        -0.015094      0.021004      0.009109
Li	      6.12549      2.12623      8.24563        -0.031899      0.032360     -0.053004
Li	      2.14567      4.12142      2.10720         0.021393     -0.034257      0.045005
Li	      4.05724      4.14704      4.16975        -0.078282     -0.040501     -0.062856
Li	      4.23759      2.09835      6.24238        -0.017321     -0.060911     -0.017927
Li	      2.15727      6.19987      4.17917         0.060007     -0.028915      0.003328
Li	      4.16449      4.15846      8.31650         0.036929     -0.020353      0.024900
Ti	      1.93747      0.12379      2.03575        -0.394649      0.358889     -0.080383
Ti	      6.35660      6.22829      8.34921         0.527322     -0.118278      0.008719
Cr	      8.25587      4.16836      4.22313         0.006366      0.001107      0.114908
Co	      4.16842      8.29697      4.19147         0.029209      0.030019      0.032258
Cu	      4.12314      6.24926      6.23951        -0.086560      0.079277      0.048632
Ni	      6.19728      2.08392      4.20725         0.002696     -0.041501     -0.013044
Ni	      2.06714      2.12927      4.13904         0.045773     -0.030227     -0.024271
Ni	      6.15974      4.12089      6.27627         0.050088      0.013685      0.026539
Ni	      2.09479      4.16738      6.23255         0.064224     -0.043718      0.018608
O	      2.06537      1.97425      2.09410        -0.031204     -0.302620     -0.124934
O	      4.25102      4.14999      2.09793         0.275480      0.005358     -0.038305
O	      4.12550      1.91448      4.15033         0.003000     -0.063247      0.011106
O	      6.27617      4.15046      4.10161        -0.018511      0.008559     -0.100104
O	      6.17502      2.20869      6.18658         0.001466     -0.151533      0.120030
O	      8.15337      4.17189      6.09054         0.154064      0.045814     -0.089628
O	      1.96007      4.12226      4.23537        -0.032986      0.173323     -0.108530
O	      4.16988      6.41148      4.24826        -0.127902      0.018128     -0.072985
O	      4.17089      4.26156      6.20201         0.023825     -0.067539      0.035610
O	      6.12754      6.16723      6.33281         0.100346      0.040070      0.108712
O	      6.20703      4.29144      8.41327         0.009643      0.114255      0.129931
O	      8.15710      6.25954      8.34402        -0.361889      0.004104     -0.018050
O	      2.15816      6.19996      6.36040        -0.110407      0.136441      0.069510
O	      4.20552      8.23815      6.10989        -0.145486      0.045427     -0.053359
O	      4.13551      6.24555      8.42616         0.002048     -0.030804      0.046745
O	      6.21450      8.25817      8.34470         0.002400     -0.036951     -0.006843
O	      6.14270      6.19903     10.37252         0.005414     -0.123116     -0.041426
O	      8.35946      8.48484     10.40662         0.093493      0.033658      0.005501
