# total energy = -211.62673611 eV
 
CRYSTAL
PRIMVEC
0.015730 6.171659 6.264394 
6.259857 0.005818 6.274092 
4.163075 4.110829 0.014173 
PRIMCOORD
36 1
Li	     10.33284      4.16369      6.27009        -0.006415      0.013138      0.025048
Li	      8.40119      8.27638     12.49065         0.058876     -0.012220     -0.036800
Li	      4.20097      8.27278      8.30553        -0.042527     -0.017706     -0.003239
Li	      8.41897      4.10800      4.34636         0.017338      0.010981      0.019359
Li	      6.27145      1.98709      8.25421         0.051168     -0.055934     -0.050593
Li	      4.16382      4.10180      4.14094         0.006184      0.017752     -0.054330
Li	      6.32846      4.07630      6.25174         0.017380      0.039100     -0.036849
Li	      4.17406      8.25805      4.25332        -0.023358     -0.024456      0.043455
Li	      6.26777      6.20594      8.43267        -0.032344      0.028880      0.005515
Ti	      2.11599      2.07411      4.15293         0.028715     -0.046548     -0.109417
Ti	      4.39781      4.08908      8.42024         0.211443      0.211086      0.206683
Cr	      6.17599      4.11581      2.07948        -0.043396      0.061978     -0.003566
Co	      4.17371      6.18702      6.27945        -0.050933      0.048797     -0.079339
Cu	      6.24543      2.05252      4.18817         0.056003      0.157708     -0.059832
Cu	      8.38163      6.11008      6.29028         0.014892      0.291776     -0.051237
Ni	      8.37208      4.11924      8.32797         0.071399     -0.060932      0.050916
Ni	      2.07120      6.15162      4.19974         0.147422      0.055333      0.125155
Ni	      6.21606      8.21509      6.29717        -0.123863      0.018553      0.042345
O	      8.32468      4.20504      6.35180        -0.041106     -0.115837     -0.195675
O	      6.33349      6.29927     10.45589        -0.109023      0.103588      0.023055
O	      2.04420      2.03118      2.21601        -0.126749     -0.132916      0.192753
O	      4.21416      4.10313      2.06184         0.127633      0.045300     -0.065558
O	      4.01176      2.07033      4.27801        -0.467507     -0.028134      0.051777
O	      6.23864      4.15883      4.09001        -0.021790     -0.005279      0.012250
O	      6.18646      2.07601      6.06613         0.059864      0.057600      0.004039
O	      2.06117      4.05823      4.15129        -0.069883     -0.305642      0.112629
O	      4.18910      6.12776      4.43139         0.210915     -0.070866     -0.163624
O	      4.09885      4.17925      6.39610         0.020675     -0.269999      0.094930
O	      6.12536      6.16898      6.19906         0.027958     -0.020730     -0.098112
O	      6.21695      4.11823      8.36850        -0.296209     -0.049500     -0.026210
O	      8.36003      6.23641      8.33568         0.035490      0.180149     -0.031282
O	      2.25034      6.16231      6.29473        -0.195975     -0.081403      0.067381
O	      4.20048      8.00609      6.30687         0.083176      0.128408      0.035850
O	      4.10974      6.09770      8.18394         0.062999     -0.267236      0.215349
O	      6.31265      8.28857      8.47297         0.054947     -0.041985     -0.029375
O	      8.39717      8.23799     10.33762         0.286599      0.137197     -0.233454
