# total energy = -210.99787421 eV
 
CRYSTAL
PRIMVEC
0.030756 6.159471 6.226681 
6.332135 0.014935 6.242900 
4.217546 4.113301 0.013820 
PRIMCOORD
36 1
Li	      2.09898      8.16142      6.24514        -0.013537     -0.059467      0.014028
Li	      4.22330      8.20072      8.27779         0.007098      0.027200      0.001633
Li	      6.36243      8.19598     10.38216        -0.034401     -0.008569     -0.061693
Li	      6.37128      2.12831      8.32062         0.048225     -0.099049      0.013702
Li	      2.11056      2.06499      4.12919        -0.003729      0.035455     -0.040655
Li	     10.53745      8.20286     10.36863        -0.020430     -0.023882      0.034208
Li	      8.47373      6.26743     10.28236         0.079053      0.005490     -0.017912
Li	      8.52219      8.21482      8.42950        -0.028041      0.026800     -0.010576
Li	      6.42803      6.09485      8.35376        -0.050542      0.017064      0.003635
Ti	      4.15683      4.18342      4.06761        -0.154746      0.247091     -0.270457
Ti	      8.48381      6.15937      6.35910        -0.008636      0.099370      0.155866
Cr	      8.47575     10.19242     10.37256         0.138860     -0.053042     -0.129387
Co	      2.15910      0.05314      2.09362         0.030060      0.062976      0.013332
Cu	      0.08385      6.10641      6.14246         0.020469     -0.073349      0.004443
Cu	      6.32163      4.10823      6.31406        -0.113623     -0.021240     -0.233833
Cu	      6.32642      8.28241      6.30689         0.181299      0.053104     -0.072436
Ni	      2.01993      4.00729      2.08807         0.180473     -0.113412      0.093766
Ni	      4.30506      6.23954      6.26264        -0.012920      0.134707      0.090317
O	      4.38389      8.29158      6.20759        -0.325117      0.010717     -0.100694
O	      2.11740      1.93235      2.05969        -0.003337     -0.056367     -0.010985
O	      4.36654      4.09670      2.15479        -0.068938      0.025314      0.346668
O	      4.18647      2.04831      4.27762         0.022484     -0.005889      0.114874
O	      6.37646      4.12755      4.12122         0.054176     -0.009891      0.164757
O	      6.16292      1.88390      6.23253        -0.061863      0.154268     -0.030655
O	      8.27944      4.15216      6.19781         0.140705      0.041734     -0.105617
O	      2.28142      4.13337      4.12191         0.229329      0.009792      0.063958
O	      4.24055      6.03768      4.22737         0.022187     -0.211581     -0.094999
O	      4.31390      4.05667      6.14645         0.016135     -0.187995      0.043057
O	      6.37949      6.32987      6.30995         0.131376     -0.363902      0.008196
O	      6.38189      4.09027      8.23949        -0.146987      0.002785      0.116437
O	      8.43276      6.11999      8.22825         0.013984      0.047594     -0.266830
O	      2.27198      6.15796      6.41116        -0.066740      0.167738     -0.142247
O	      4.07735      6.18353      8.38239         0.059801      0.015159      0.125454
O	      6.36588      8.46927      8.26030         0.058140      0.070167      0.128763
O	      6.11696      6.19777     10.36449        -0.310459     -0.041734      0.050004
O	      8.42252      8.38178     10.42228        -0.009805      0.074843      0.001875
