# total energy = -210.66472318 eV
 
CRYSTAL
PRIMVEC
0.017742 6.385106 6.078645 
6.296770 0.030819 6.065159 
4.233611 4.283450 -0.015631 
PRIMCOORD
36 1
Li	      4.24120      2.23804      2.03359         0.051753      0.008024      0.002553
Li	      6.26304      2.14358      4.02594        -0.009151     -0.004191     -0.078858
Li	      4.24193      6.35317      2.10058         0.021036     -0.037828      0.021547
Li	      2.10716      4.30652      2.17448        -0.050226      0.004656      0.104622
Li	      2.09613      2.23831      4.00760        -0.072868      0.040448     -0.053756
Li	      4.10245      4.30882      3.97968        -0.038709      0.114761     -0.048466
Li	      0.14577      4.25273      4.02905         0.032194     -0.100171      0.000110
Li	      2.14144      6.21165      4.01259         0.093601     -0.059940     -0.018460
Li	      6.35328      6.37505      8.09704         0.010911      0.015344      0.020606
Ti	      2.08100      2.14106      0.11032        -0.033986     -0.173838      0.323920
Ti	      8.55641      8.47296      8.14994         0.082503     -0.270627      0.368311
Cr	      4.20939      0.09837      4.03237         0.216142      0.465078     -0.262294
Co	      4.29539      6.45181      5.86134        -0.150056      0.165993      1.253953
Cu	      4.22214      4.27296      0.01033         0.049757     -0.024836     -0.130280
Cu	      6.30544      4.27444      2.02155        -0.024809      0.063918      0.267173
Cu	      8.42220      6.45022      6.05730        -0.130308      0.153224      0.004784
Cu	      2.11938      4.22902      6.01663        -0.001932     -0.321576     -0.146116
Ni	      6.29375      4.31319      6.05722         0.043906     -0.050672     -0.096662
O	      6.43740      8.65269      7.92163         0.137368     -0.049933      0.229296
O	      6.11283      6.39405     10.20997        -0.236504      0.007657      0.029648
O	      2.10572      2.09835      1.95227         0.026346      0.197225     -0.418084
O	      4.33488      4.26971      1.92868        -0.026755     -0.013704      0.064976
O	      4.21194      1.97114      4.13972        -0.019048     -0.385714     -0.009452
O	      6.51674      4.25270      3.97764         0.187763     -0.054362      0.171000
O	      6.41379      2.20028      6.03872         0.127645     -0.084677      0.024459
O	      8.36042      4.17427      6.02131         0.058185     -0.107682      0.050663
O	      2.12074      4.25522      4.15065         0.025244      0.073298     -0.228561
O	      4.21392      6.39071      4.10012         0.031917     -0.031729      0.051983
O	      4.26411      4.40259      6.12834        -0.016441      0.201740     -0.441321
O	      6.28239      6.36566      6.08094        -0.188340      0.127666     -0.266424
O	      6.18897      4.30730      8.07874        -0.273724     -0.011359      0.036118
O	      8.39896      6.57752      8.01879         0.004839      0.282518      0.075736
O	      2.19708      6.53239      6.08867         0.067669      0.059256     -0.316474
O	      4.11058      8.48862      6.06613        -0.068688     -0.207289     -0.198038
O	      4.15604      6.34178      8.12815         0.109726     -0.110320     -0.329457
O	      8.41546      8.67583     10.05988        -0.036960      0.119643     -0.058753
