# total energy = -209.88891661 eV
 
CRYSTAL
PRIMVEC
-0.062318 6.338795 6.062363 
6.246042 -0.064434 6.064122 
4.140104 4.203385 -0.018679 
PRIMCOORD
36 1
Li	      6.12804      0.13913      6.04590        -0.085245      0.215191     -0.045091
Li	      8.20157      2.11430      6.06327        -0.132681      0.099643      0.027802
Li	      6.18928      2.16186      4.13912        -0.001405     -0.018184      0.098796
Li	      6.24896      1.99583      7.90041        -0.018722      0.075890     -0.063070
Li	      8.26720      4.16761      7.90019        -0.107128      0.054042      0.002650
Li	      4.20993      4.14036      4.13682        -0.031928      0.045158     -0.030000
Li	      4.29492      2.05123      6.04969         0.060188     -0.034983      0.028409
Li	      6.18934      4.09871      6.03955         0.105064     -0.120157      0.138426
Li	      6.23940      8.34619      6.08691         0.002715     -0.034941      0.013312
Ti	      4.17444      2.27425      1.96437        -0.155888      0.416150     -0.146258
Ti	      2.02030      6.23787      4.11499        -0.168812     -0.228164     -0.159015
Cr	      6.19209      6.31950      4.04137        -0.060387      0.095055      0.090977
Co	      4.11777      6.23355      6.09244         0.069431     -0.013973     -0.074418
Cu	      2.05524      0.02596      1.98734        -0.143534     -0.215187     -0.208715
Cu	      8.26706      4.17883      4.09684         0.025964      0.112757      0.258918
Cu	      4.08810      8.41199      4.06328         0.277749      0.054995      0.047609
Cu	      8.29081      8.34004      8.05385        -0.140081     -0.265253     -0.252606
Cu	      6.24466      6.27423      8.03472         0.108123     -0.075786      0.031905
O	      6.10362      8.38757      8.13573        -0.137252      0.033079     -0.029491
O	      6.31602      6.26906     10.06427         0.093034     -0.049205      0.221219
O	      8.37922      8.17370     10.05567        -0.172073      0.031378     -0.305692
O	      2.18044      2.06810      2.06682         0.091106      0.078760     -0.042805
O	      4.12482      4.09833      1.91818         0.005198     -0.425925      0.048268
O	      4.03508      2.16534      3.93689        -0.024916     -0.009332     -0.012581
O	      6.24990      4.32522      3.91140         0.083890      0.038330      0.148122
O	      6.23638      2.08460      6.03131         0.004350     -0.002364     -0.111372
O	      8.28537      4.16744      5.94807         0.038373     -0.003484     -0.079933
O	      1.95118      4.24787      4.01104         0.173734     -0.092606      0.117772
O	      4.10275      6.22819      4.15708         0.007650     -0.021644      0.009121
O	      4.10928      4.33845      6.14875        -0.009589      0.021720      0.225703
O	      6.02531      6.29280      6.06778        -0.019805     -0.006528     -0.362746
O	      6.12798      4.24544      8.13983         0.313685      0.024960      0.221649
O	      8.26908      6.33592      8.14911        -0.038326     -0.364265      0.231415
O	      2.14109      6.27062      6.04190         0.085910     -0.046667     -0.127390
O	      4.08941      8.19066      6.13157         0.004822      0.017069      0.020240
O	      4.18593      6.21957      8.08178        -0.103213      0.614470      0.068869
