# total energy = -207.95267482 eV
 
CRYSTAL
PRIMVEC
0.013853 6.130421 6.228019 
6.249619 0.005627 6.236412 
4.168439 4.094682 0.001605 
PRIMCOORD
36 1
Li	      4.20027      4.09532      0.11099         0.066425      0.025141      0.009303
Li	      2.08502      6.15538      8.26450         0.060449     -0.032176      0.004849
Li	      4.10700      2.10884      2.02505         0.012436      0.022503     -0.009941
Li	      0.04233      1.98699      2.03129         0.027757      0.028680     -0.047362
Li	      6.27801      6.09243      4.13336         0.010558     -0.001764     -0.011044
Li	      8.30521      6.12704      6.28017        -0.059582     -0.006089     -0.028226
Li	      2.11862      6.13863      4.18018         0.020016     -0.021109      0.041893
Li	      6.25466      8.18879      6.30930        -0.002959      0.019498      0.044693
Li	      6.26086      6.14488      8.23461        -0.012236     -0.007910     -0.025046
Ti	      6.14105      1.99692      4.18638        -0.291204     -0.097025      0.098221
Ti	      0.12644      4.03707      4.16845         0.418017     -0.055799      0.106484
Cr	      8.29996      8.11253      8.28145         0.009412      0.097301     -0.083608
Cu	      2.15102      4.09574      2.03359         0.015432      0.120009     -0.009316
Ni	      2.11009      2.03174      0.06477         0.026423     -0.121836     -0.130463
Ni	      4.13610      0.02595      4.12252        -0.057429      0.029430      0.168864
Ni	      4.13993      4.15283      4.11313        -0.095227      0.001168      0.131960
Ni	      6.23454      4.10821      6.24839        -0.092057      0.004877      0.049113
Ni	      4.18571      6.15322      6.26654         0.020037     -0.009049      0.063563
O	      2.10524      2.13850      2.03369        -0.021655      0.170794      0.152078
O	      4.09176      4.12086      2.12435         0.072116      0.026214     -0.168056
O	      4.26794      2.04950      4.15470         0.248074      0.024416     -0.015146
O	      6.24446      3.99064      4.16964        -0.008658     -0.075352     -0.142818
O	      6.32717      2.08042      6.10972        -0.149851     -0.142793     -0.141201
O	      8.23727      4.05027      6.29399         0.113334      0.216757     -0.384356
O	      2.01853      4.12626      4.03894        -0.336461     -0.002751      0.361407
O	      4.17616      6.22412      4.23723         0.021540      0.207926     -0.160624
O	      4.18551      4.11443      6.28354        -0.107283     -0.145265      0.090514
O	      6.07738      6.07143      6.23910         0.211301      0.117210     -0.034500
O	      6.15225      4.08243      8.40773        -0.098732     -0.006575      0.061995
O	      8.34921      6.26239      8.27665        -0.016213     -0.258693      0.019521
O	      2.29274      6.20747      6.26608        -0.197407     -0.129020     -0.007324
O	      4.19223      8.19596      6.09723         0.109555      0.153334     -0.058413
O	      4.19083      5.94906      8.27987        -0.010767     -0.067824      0.073945
O	      6.40580      8.15879      8.41890         0.037400      0.004291      0.076047
O	      6.22640      6.14356     10.42016         0.073884      0.020901     -0.022549
O	      8.36435      8.20414     10.31799        -0.016448     -0.109421     -0.074459
