# total energy = -207.48032288 eV
 
CRYSTAL
PRIMVEC
-0.007000 6.264303 6.263712 
6.151021 -0.031412 6.288315 
4.084591 4.176641 -0.005069 
PRIMCOORD
36 1
Li	      8.20474      2.14885      6.20709        -0.041282      0.029094      0.010561
Li	      8.17174      4.08129      4.32104         0.033402     -0.003281      0.008535
Li	      6.14979      2.14629      4.23478        -0.042348      0.006153      0.066717
Li	      8.15183      4.22228      8.29541         0.010456     -0.006382     -0.081398
Li	      8.13136      6.15721      6.25439        -0.021604      0.004184     -0.051145
Li	      6.15314      4.23402      6.25100        -0.002113     -0.032211     -0.007139
Li	      6.17025      8.29611      6.26541         0.033909     -0.027010      0.031883
Li	      8.14562      8.33069      8.34049        -0.022515     -0.000665     -0.031966
Li	      6.23120      6.16437      8.27287         0.054812     -0.068533     -0.045443
Ti	      4.19200      8.30459      8.36917         0.207789     -0.277328      0.156440
Ti	      6.10799      2.17875      8.20921        -0.106922      0.413596     -0.690993
Cr	      8.15563      6.25643     10.49074         0.221248      0.101803     -0.023364
Cu	      6.13519      4.16540      2.10106         0.222690     -0.177736      0.013993
Cu	      6.14135      4.17535     10.46668         0.044414     -0.059917     -0.149154
Cu	      4.11937      6.19752      6.28519        -0.004344      0.116738      0.279186
Ni	     10.19663      4.14925      6.26135         0.088034     -0.000056     -0.086822
Ni	      6.14648      6.23834      4.24609         0.124127      0.013139      0.035906
Ni	      4.11012      4.12794      4.25782        -0.043564     -0.077312      0.005993
O	      8.33723      8.23847     10.44703        -0.215166     -0.148209     -0.010509
O	      1.98117      1.99082      2.16366        -0.031023      0.123223     -0.063974
O	      4.12610      4.15246      2.08775        -0.216169      0.005657      0.051163
O	      4.06112      2.12404      4.03414         0.136190     -0.070431     -0.202060
O	      6.12022      4.19285      4.08709         0.039933     -0.083499      0.109997
O	      6.12860      2.02477      6.36439         0.004705      0.146164      0.600277
O	      8.33245      4.15978      6.28631        -0.548664      0.009285      0.056878
O	      1.92563      4.21671      4.18706         0.024698      0.195856      0.015387
O	      4.04485      6.21762      4.24273        -0.147179      0.200991     -0.267906
O	      4.09070      4.25192      6.23105        -0.049208     -0.128822     -0.059031
O	      6.06856      6.23549      6.25132         0.160216      0.076692      0.098042
O	      6.18839      4.01842      8.35887        -0.034473     -0.371368     -0.041029
O	      8.30608      6.21859      8.48630         0.216050      0.007747      0.015384
O	      1.94272      6.27195      6.24997         0.194612     -0.013187      0.035458
O	      4.04131      8.37148      6.39794         0.060019     -0.054860      0.124376
O	      4.03271      6.35091      8.26018         0.112779      0.235502      0.103752
O	      6.05050      8.39959      8.38349        -0.249302     -0.041086      0.030852
O	      6.20079      6.17977     10.52102        -0.214210     -0.043929     -0.038847
