# total energy = -208.02164139 eV
 
CRYSTAL
PRIMVEC
-0.005654 6.192685 6.140441 
6.331207 -0.009227 6.144228 
4.223966 4.133970 -0.009199 
PRIMCOORD
36 1
Li	      8.38153      2.08208      6.19603        -0.045514     -0.007616      0.064312
Li	      2.13771      0.05165      2.08873        -0.017185      0.043226      0.026516
Li	      8.44142     10.27895     10.19927         0.042762     -0.020419     -0.014779
Li	     10.49651      6.23842      8.18841        -0.137255      0.028795      0.002828
Li	      8.43446      4.13497      8.15320        -0.025494      0.045729      0.036500
Li	      8.43121      6.15645      6.22748        -0.084493      0.003093      0.037960
Li	      6.41767      4.11250      6.15859         0.100321      0.013566      0.025092
Li	      8.42271      6.21309     10.14686        -0.044173     -0.044365     -0.083205
Li	      6.36360      6.14130      8.21892         0.109798     -0.065530     -0.011979
Ti	     10.40537      4.23944      6.15079        -0.300764      0.201428      0.095977
Ti	      2.17722      4.15338      6.21483         0.023775     -0.057463     -0.113110
Cr	      6.31413      4.10161     10.19025         0.231051      0.063480     -0.145984
Cu	      4.15726      2.01352      2.05933        -0.006780      0.067893     -0.170207
Cu	      6.38397      8.26717     10.20518        -0.128552      0.131471      0.013807
Cu	      4.23967      4.16096      4.01020        -0.221789      0.162805      0.117470
Cu	      4.28607      4.08459      8.20689        -0.169310      0.096976     -0.247772
Ni	      6.34137      6.16593      4.07347        -0.042429     -0.155667     -0.006421
Ni	      4.19953      6.19517      6.16564         0.045343      0.009128     -0.044395
O	      8.43870      6.29328      8.16426         0.025022      0.004379      0.011444
O	      4.22125      6.20835      8.15609         0.021107     -0.293012      0.212266
O	      2.19189      2.05192      2.18766        -0.034219     -0.000653     -0.409289
O	      4.21614      4.08033      1.98839         0.015212      0.092407     -0.365830
O	      4.14160      2.18893      3.98718         0.183664     -0.305148      0.325717
O	      6.19838      4.11241      4.11867         0.184389     -0.301549     -0.017378
O	      6.38735      1.96234      6.03023        -0.031238     -0.028252      0.242297
O	      8.57429      4.11946      6.14107         0.270051     -0.007327     -0.047817
O	      2.05208      4.07504      4.19003         0.045582      0.397110      0.010207
O	      4.29236      6.19267      4.12141         0.024323      0.008732     -0.148447
O	      4.11865      4.14040      6.12697         0.035339     -0.186116      0.198475
O	      6.29082      6.29559      5.99650         0.077797      0.098736      0.427168
O	      6.24890      4.12314      8.25319         0.246036      0.015475     -0.079570
O	      2.04953      6.05117      6.14351        -0.048122     -0.040113      0.021287
O	      4.29790      8.28410      6.13197        -0.013010      0.128219     -0.067364
O	      6.33621      8.21622      8.16643        -0.065206      0.009668     -0.058423
O	      6.33467      6.12383     10.35695         0.029156     -0.090495     -0.001134
O	      8.58046      8.24994     10.13150        -0.295197     -0.018590      0.163782
