# total energy = -208.92423571 eV
 
CRYSTAL
PRIMVEC
0.000920 6.235402 6.457382 
6.149475 0.025322 6.432970 
4.093722 4.134767 0.022649 
PRIMCOORD
36 1
Li	     10.17450      4.16729      6.47004        -0.003945      0.016186      0.054133
Li	      2.15164      8.26801      6.49218         0.012986     -0.017078      0.027500
Li	      6.16857      4.19304      2.27328        -0.022872      0.023372      0.117520
Li	      4.03561      2.09460      2.25185        -0.037829      0.026960      0.048263
Li	      4.11233      6.32195     10.68569        -0.017098     -0.029153     -0.008794
Li	      6.11303      8.25640     10.69331        -0.047042      0.069722     -0.022750
Li	      2.08479      4.12031      2.13589         0.018149     -0.001533     -0.085876
Li	      4.09964      4.07460      4.22008         0.028049     -0.033642     -0.061973
Li	      4.07790      6.24714      6.56984        -0.058119      0.000547      0.138930
Ti	      6.24344      4.10074      6.32751         0.347502     -0.197459     -0.449295
Ti	      6.01839      8.39706      6.55909        -0.261517      0.502438      0.004526
Cr	      4.16821      6.12355      2.17790         0.070431     -0.101941     -0.534828
Cu	      2.08110      2.09560      4.29574        -0.159712     -0.099992     -0.300589
Cu	     10.20758      8.33815     10.80022        -0.095243      0.159001      0.123681
Cu	      2.04261      6.21884      4.32182         0.347598     -0.086796      0.204921
Cu	      4.10388      4.19860      8.59172        -0.105689      0.379764      0.099567
Cu	      6.12040      6.23519      8.64702        -0.096758      0.032172     -0.009869
Ni	      4.11469      2.09551      6.34639         0.087861     -0.128255      0.056173
O	      4.19149      6.16107      8.64699        -0.077548      0.016612     -0.086863
O	      6.24542      6.16851     10.71160        -0.301815     -0.190961     -0.156026
O	      8.25864      8.24208     10.64108         0.235553     -0.029778     -0.025804
O	      1.90212      2.11927      2.20773         0.081364      0.028396      0.019242
O	      4.06135      4.34735      2.16132        -0.056950     -0.013149      0.048198
O	      4.00593      2.10437      4.31803         0.259721      0.015760     -0.037305
O	      6.10047      4.20469      4.43866        -0.011943     -0.130386      0.280291
O	      6.15962      2.17871      6.53077         0.036657     -0.001980     -0.015274
O	      8.09093      4.17226      6.44906        -0.222963      0.036054     -0.007274
O	      2.00493      4.11204      4.44872        -0.083323      0.160760     -0.017354
O	      4.12214      6.29837      4.14046        -0.152716      0.064138      0.352064
O	      4.09246      4.13963      6.53239        -0.031952      0.060318     -0.124396
O	      6.14575      6.22733      6.42552        -0.128483      0.106325      0.302687
O	      6.07953      4.09714      8.37848         0.193313      0.020115      0.002116
O	      8.22549      6.28949      8.64784         0.131527     -0.160088     -0.068763
O	      2.07552      6.13471      6.33706         0.027814     -0.360728      0.118300
O	      4.19899      8.29534      6.63715         0.218526     -0.046870      0.016255
O	      6.21243      8.32197      8.49994        -0.123532     -0.088850     -0.001336
