# total energy = -233.27955787 eV
 
CRYSTAL
PRIMVEC
0.021676 6.075003 6.474877 
6.322530 0.007443 6.488673 
4.231465 4.075887 -0.011153 
PRIMCOORD
36 1
Li	      4.25858      4.10275      0.08213        -0.011491     -0.001836     -0.024669
Li	      2.07992      1.98436      0.06752         0.012089     -0.039407      0.015294
Li	      2.03276      6.11550      8.46476        -0.015214      0.018590     -0.062837
Li	      8.41754      4.05150      4.42449         0.019662     -0.000048      0.073369
Li	      4.19576      5.99026      2.15268        -0.078701      0.024169      0.024744
Li	      4.22958      4.13332      4.15148        -0.035256      0.042018     -0.057788
Li	      8.49121      6.07052      6.54207         0.002642     -0.008668      0.063462
Li	      2.16212      6.07195      4.35725        -0.003137      0.026630     -0.031916
Li	      4.14330      6.08829      6.48404         0.016054      0.029308      0.004863
Ti	      6.15787      1.99299      4.44329        -0.157769     -0.098808      0.093703
Ti	      4.19729      8.10188      4.36458        -0.037146     -0.114954      0.200716
Mn	      4.19476      2.05475      2.13651         0.082730     -0.031138     -0.043606
Mn	      2.19693      4.12921      6.41533        -0.061470      0.052772      0.000609
Mn	      4.22210      4.08783      8.63768         0.005188     -0.007084      0.030267
Fe	      6.32043      6.03452      4.28354         0.113796     -0.028829     -0.048509
Fe	      6.45149      4.09882      6.54582        -0.053670     -0.090219     -0.085350
Fe	      6.39025      6.09608      8.60697         0.030035      0.106649      0.020923
Ni	      8.49462      4.08744      8.60181         0.037252     -0.000367     -0.053813
O	      2.25685      1.98304      2.29325         0.035697     -0.042180     -0.009114
O	      4.18070      3.97385      2.13477         0.116588     -0.104814     -0.013103
O	      4.28941      2.04075      4.37117         0.192837     -0.035243      0.031816
O	      6.31546      4.03085      4.46883         0.004781     -0.071483      0.060351
O	      6.35802      2.06685      6.30209        -0.071570      0.001843     -0.165142
O	      8.33872      4.04945      6.56953         0.026972     -0.019434     -0.106427
O	      2.00178      4.01382      4.23925        -0.006337      0.027220      0.058865
O	      4.32482      6.18844      4.25045        -0.067643      0.180083      0.024709
O	      4.20363      4.08587      6.69439         0.020297     -0.001607      0.069488
O	      6.37542      6.16661      6.33164        -0.003000     -0.019082     -0.038721
O	      6.39235      4.00235      8.64951        -0.151651     -0.099101      0.032861
O	      8.39790      6.19890      8.62675         0.116649      0.272753      0.026330
O	      2.15751      5.97591      6.44124         0.001978     -0.061642     -0.026289
O	      4.31852      8.12948      6.24927         0.100984      0.014561     -0.195930
O	      4.34847      6.11954      8.61518        -0.153603     -0.095088     -0.031519
O	      6.23314      8.20839      8.76801        -0.071392      0.087354      0.079787
O	      6.34300      6.12899     10.80017        -0.023309      0.086829      0.128845
O	      8.54865      8.14389     10.63189         0.066132      0.000253     -0.046270
