# total energy = -237.06831742 eV
 
CRYSTAL
PRIMVEC
0.019727 6.261938 6.588274 
6.230431 0.015867 6.590607 
4.160005 4.183111 0.004582 
PRIMCOORD
36 1
Li	      6.17827      0.07923      6.52739        -0.016441     -0.025151     -0.014270
Li	      4.25956      6.23725     11.01986        -0.019342      0.006562      0.028480
Li	     10.29351      6.36071      8.77301         0.029181     -0.026958      0.036896
Li	      8.22996      4.31513      8.66183         0.030208     -0.013998      0.026569
Li	      4.17952      4.20774      4.34398         0.000300      0.006112     -0.023124
Li	      8.40285      6.17949      6.88783         0.019775      0.016987      0.068888
Li	      6.19643      4.22775     10.75503        -0.000593     -0.001608     -0.043898
Li	      8.43072      8.27085      8.81351        -0.015153      0.043399     -0.015564
Li	      6.36002      6.19826      8.88837        -0.037129     -0.014922      0.031490
Ti	      4.15448      2.15217      2.19742        -0.033433      0.082844      0.082220
Ti	      2.22239      4.12298      6.53967         0.173814     -0.136242     -0.180788
Mn	      6.22451      4.18073      2.20810         0.026842      0.022638     -0.016733
Mn	      6.21567      2.08458      4.44917        -0.008028      0.007917      0.006705
Mn	      6.20842      6.24898      4.35957        -0.021705      0.005512     -0.005358
Fe	      8.30542      2.19140      6.54834         0.052884     -0.094698      0.045834
Fe	      6.24703      4.19423      6.81678        -0.075623      0.065466     -0.134017
Fe	      8.32701      6.26997     10.80026         0.077668     -0.029755      0.128441
Fe	      4.14587      6.26072      6.54015         0.090467     -0.021033     -0.000531
O	      2.18822      2.10796      2.13682         0.066761     -0.006748     -0.062068
O	      4.29654      4.07654      2.22039        -0.006839     -0.135656     -0.003414
O	      4.23303      2.05507      4.14133         0.021116      0.007142     -0.160012
O	      6.22745      4.08292      4.33274         0.009130     -0.106301     -0.003418
O	      6.30164      2.18697      6.63016        -0.078035     -0.061612     -0.028649
O	      8.23696      4.14368      6.59732         0.084132      0.080914     -0.012431
O	      2.04698      4.23709      4.64754         0.032551     -0.010134      0.202632
O	      4.09471      6.27881      4.49944         0.041311     -0.002316     -0.134955
O	      4.11410      4.11715      6.61278        -0.243637     -0.043522      0.018649
O	      6.28342      6.33407      6.55321         0.068608      0.122299      0.056142
O	      6.21911      4.23439      8.68296        -0.028420      0.023425      0.190080
O	      8.34899      6.25721      8.93434         0.018451     -0.024221     -0.207945
O	      2.04174      6.21629      6.64912        -0.109816     -0.038637      0.001973
O	      4.16642      8.38915      6.75373         0.058123      0.111058      0.059705
O	      4.00221      6.35430      8.67532        -0.012784      0.059008      0.108997
O	      6.15567      8.33711      8.59611        -0.058083      0.025074     -0.025297
O	      6.32017      6.40699     10.98069        -0.121756      0.055371      0.029125
O	      8.25577      8.31394     11.12561        -0.014506      0.051783     -0.050355
