# total energy = -230.22218208 eV
 
CRYSTAL
PRIMVEC
0.021239 6.321457 6.333078 
6.177132 0.071586 6.284699 
4.156937 4.220951 0.007785 
PRIMCOORD
36 1
Li	      6.16881      6.40974     12.54526         0.055040     -0.026474      0.075080
Li	      6.16644      4.22644      2.11354         0.004140      0.010098     -0.074460
Li	     10.26790      6.39249      8.41441        -0.007094     -0.027923      0.023517
Li	      4.10521      4.23024      4.14961        -0.012670      0.043524     -0.008515
Li	      8.35909      6.33599      6.37436        -0.017064     -0.010433      0.025745
Li	      6.18198      4.26276      6.35389        -0.039924     -0.028343      0.024107
Li	      6.24052      4.44366     10.42564        -0.001019     -0.049476      0.073759
Li	      2.02955      6.19616      4.18904         0.059944     -0.069336      0.059707
Li	      6.26273      6.33436      8.55323        -0.017531      0.031524     -0.089655
Ti	      8.09995      2.23802      6.25468        -0.269358      0.013052      0.209173
Ti	      6.09021      6.26994      4.27800        -0.407304      0.034771      0.203587
Mn	      4.22114      8.46917      8.46177         0.013866     -0.022989     -0.216547
Mn	      8.20556      4.36175      8.40935         0.010373     -0.033803     -0.026202
Mn	      4.14119      6.34972      6.32754        -0.063724     -0.049091      0.086280
Mn	      8.37138      8.42574      8.45389         0.037772      0.012422     -0.028968
Co	      4.18450      6.40268     10.51336         0.394384      0.091767      0.077488
Cu	      2.10199      4.24380      6.32233        -0.016388      0.039857     -0.010233
Ni	      6.22089      8.47306     10.50322        -0.025243      0.142270     -0.016618
O	      2.01197      2.25315      2.02104        -0.037376     -0.006901      0.049998
O	      4.04283      4.06536      2.09689         0.089509      0.030645      0.043216
O	      4.10457      2.04076      4.12564        -0.133994     -0.000830      0.064666
O	      6.32285      4.33713      4.13519        -0.315381      0.073848      0.042752
O	      6.27380      2.17770      6.23599         0.306490      0.022911      0.056584
O	      8.28418      4.16770      6.17361        -0.149257     -0.228169      0.859018
O	      2.08795      4.06642      4.28923         0.014901     -0.041719     -0.223026
O	      4.26087      6.25435      4.18605         0.305878      0.004310     -0.020259
O	      4.08341      4.37225      6.46358         0.066259     -0.127599     -0.053882
O	      6.09247      6.24405      6.17770         0.035560     -0.156255     -0.286713
O	      6.17359      4.27836      8.41472         0.031566      0.007084     -0.001278
O	      8.28562      6.26606      8.40892        -0.038819     -0.038901      0.022839
O	      2.23339      6.56117      6.29016        -0.048450      0.270569     -0.042025
O	      4.20392      8.34344      6.46942        -0.067039      0.141915     -0.073730
O	      4.18809      6.51088      8.55227        -0.074099      0.036047     -0.994989
O	      6.37701      8.50418      8.40453        -0.047684      0.012950      0.091926
O	      6.10076      6.45909     10.54971         0.254347     -0.105533      0.042829
O	      8.30318      8.65924     10.52871         0.109391      0.004214      0.034826
