# total energy = -229.86417741 eV
 
CRYSTAL
PRIMVEC
0.115653 6.466008 6.302054 
6.267686 0.106559 6.316016 
4.194754 4.338438 0.052359 
PRIMCOORD
36 1
Li	      2.37460      6.49774      8.52291        -0.051800      0.005073     -0.004975
Li	      4.34087      8.51144      8.48340        -0.014616      0.017009      0.026655
Li	      8.47069     10.72969     10.46725        -0.022942     -0.015644      0.072848
Li	      6.47409      8.71448     10.39253        -0.046907     -0.021233     -0.024521
Li	      8.37664      4.46263      8.43429        -0.075254     -0.031414     -0.015172
Li	      6.25122      4.46596      6.27496         0.092019     -0.017313      0.127904
Li	     10.40904      8.87409     10.58200         0.088474     -0.008764     -0.115506
Li	      4.27304      6.47901      6.58919        -0.017922     -0.005633     -0.088034
Li	      8.46024      8.86075      8.63409         0.062321      0.005744      0.007714
Ti	      6.28363      2.39148      8.43052         0.089042      0.546411     -0.082532
Ti	      6.31024      8.66683      6.50652         0.034243      0.069310      0.632655
Mn	     10.57153     10.90195     12.66028        -0.080844     -0.020500     -0.063066
Mn	      2.14570      2.16240      4.10987         0.032820      0.034016      0.100451
Mn	      4.25547      4.33192      4.13974         0.010310     -0.068361      0.080413
Mn	      4.21540      2.22058      6.27032         0.058996     -0.067460      0.027987
Co	      8.42903      6.57787     10.52918        -0.138280      0.056675     -0.005102
Cu	      2.23064      8.62612      6.30360         0.028965      0.034588      0.018405
Cu	      6.30859      6.51143      8.54212         0.012025      0.046416     -0.056432
O	      4.38023      6.52083      8.49424        -0.123504      0.016715     -0.011106
O	      1.97387      2.16948      1.99446        -0.039135      0.019647      0.179400
O	      4.20051      4.45968      2.23519        -0.004254      0.078213     -0.006120
O	      4.22113      2.41863      4.17912         0.030430      0.107177      0.005207
O	      6.14512      4.40935      4.27068        -0.050599      0.057213     -0.021695
O	      6.26622      2.09505      6.42944        -0.007204     -0.068649      0.122564
O	      8.51094      4.63975      6.29351         0.049403     -0.064118     -0.006176
O	      2.26568      4.42546      4.24828        -0.009961     -0.031563      0.019596
O	      4.16434      6.34349      4.16634        -0.072143     -0.019329     -0.094761
O	      4.14590      4.19339      6.16951        -0.072467      0.224700     -0.020063
O	      6.35418      6.66022      6.37111        -0.131569      0.080979     -0.191421
O	      6.29277      4.21059      8.37812         0.050157     -0.692045      0.051733
O	      8.42719      6.58946      8.52529         0.160575     -0.022745      0.058777
O	      2.10056      6.31754      6.15322        -0.083626     -0.091224     -0.058581
O	      4.33607      8.80859      6.36076         0.143732      0.077715     -0.008963
O	      6.44011      8.84644      8.29519        -0.032034     -0.070034     -0.654101
O	      6.51424      6.55911     10.50411         0.082210     -0.030238      0.105183
O	      8.46567      8.52502     10.69076         0.049339     -0.131335     -0.109166
