# total energy = -229.87206814 eV
 
CRYSTAL
PRIMVEC
0.023645 6.257735 6.233704 
6.271879 0.027868 6.229380 
4.209283 4.196900 -0.009255 
PRIMCOORD
36 1
Li	      4.33192      8.33588      8.33167        -0.010762     -0.013517     -0.046766
Li	      4.23158      6.25009     10.28382         0.007885     -0.071984     -0.135964
Li	      6.27475      8.35244     10.29645         0.018096     -0.010705      0.016581
Li	     10.36260      6.34045      8.31017         0.073585      0.017420     -0.026835
Li	      4.21649      4.19606      4.17151         0.003329      0.072029      0.015014
Li	      8.39663      6.34623     10.22162         0.012514      0.070737     -0.042799
Li	      6.37197      8.34612      6.31242        -0.001124     -0.016862      0.040364
Li	      8.36098      8.30356      8.31765        -0.027991      0.073974      0.054404
Li	      6.40771      6.33186      8.33769         0.003077      0.008833      0.027737
Ti	      6.28784      6.28931     12.41371        -0.079747     -0.056512     -0.365721
Ti	      2.21198      2.11314      4.12211        -0.193200      0.058803     -0.176645
Mn	      8.31391      2.18300      6.19707        -0.017184      0.022018     -0.073621
Mn	      6.29647     10.36781      8.36098         0.050191     -0.004941     -0.017921
Mn	      6.25180      4.19907     10.26608         0.003203      0.009542      0.047174
Mn	      4.22606      6.17575      6.28424         0.020787      0.004344     -0.148692
Co	      8.38587      6.34038      6.25454         0.087614      0.431825      0.371146
Ni	      8.38602      4.30477      8.32847         0.136229     -0.223050      0.020833
Ni	      6.25382      4.17197      6.28004         0.122199     -0.043381     -0.058599
O	      2.08390      1.99431      2.17931        -0.016391     -0.013612      0.150064
O	      4.28323      4.18312      1.97146         0.054257      0.038048      0.073440
O	      4.06915      2.13658      4.26890        -0.203173     -0.007700     -0.167168
O	      6.30329      4.29151      4.05545         0.038322      0.029287     -0.045092
O	      6.17116      2.06685      6.18770         0.798312     -0.164652     -0.051591
O	      8.43744      4.32860      6.26654         0.181428     -0.901209     -0.076423
O	      1.98339      4.07629      4.10602         0.062207     -0.140859      0.153567
O	      4.31085      6.29950      4.34423         0.100745     -0.397161     -0.003536
O	      4.25342      4.13908      6.20734        -0.218879      0.610911      0.080310
O	      6.38885      6.23565      6.15666        -0.764987      0.059983     -0.102638
O	      6.36129      4.19079      8.30630        -0.124699      0.021881      0.011282
O	      8.40017      6.28101      8.16529        -0.063909      0.195028      0.056728
O	      2.00656      6.27791      6.39212         0.022027     -0.014646      0.023144
O	      4.20667      8.45183      6.16700        -0.080390      0.104813      0.157969
O	      4.02618      6.28164      8.20021        -0.006274     -0.008610      0.137412
O	      6.29095      8.53352      8.34722        -0.030128     -0.018954     -0.012373
O	      6.33304      6.28437     10.53527         0.111105      0.315708      0.196286
O	      8.57611      8.38211     10.37255        -0.068276     -0.036830     -0.081071
