# total energy = -231.96905825 eV
 
CRYSTAL
PRIMVEC
0.044007 6.170961 6.359601 
6.385504 0.040656 6.363212 
4.258751 4.117690 0.026254 
PRIMCOORD
36 1
Li	     10.43922      4.13094      6.37431         0.150280     -0.014582     -0.004578
Li	      8.55307      2.28175      6.29667        -0.013457     -0.093921     -0.017467
Li	      6.34117      4.12677      2.14874         0.009889     -0.086635     -0.006859
Li	      8.47351      4.14736      4.45814        -0.028446     -0.066119      0.006491
Li	      8.51533      4.18020      8.24854        -0.040498      0.071604     -0.067751
Li	      8.50815      6.03225      6.38286        -0.061288      0.035207      0.062249
Li	      6.63341      4.12407      6.40095         0.071325      0.038178      0.016982
Li	      6.41888      4.19836     10.62006         0.015945      0.072669     -0.035403
Li	      4.25213      6.21714      6.35513        -0.029081      0.051807      0.007107
Ti	      4.17949      8.15426      8.41658         0.088529     -0.402479     -0.421797
Ti	      6.47796      2.05142      8.35411        -0.145254      0.096990     -0.549865
Mn	      6.36036      2.08980      4.33327         0.124799     -0.039885      0.063185
Mn	      6.39735      6.15086      4.38112        -0.055339      0.003130      0.291683
Mn	      2.21069      6.15029      4.23912        -0.147316      0.098600      0.664466
Mn	      4.30151      4.20824      8.41451        -0.136908      0.002315     -0.003964
Co	      4.30374      4.12800      4.33703        -0.153315      0.003267      0.112460
Co	      2.15868      4.19409      6.39908        -0.102254     -0.550965     -0.322926
Cu	      6.44319      6.12262      8.43116        -0.035743     -0.066664     -0.178062
O	      8.54190      4.15355      6.33841         0.045056     -0.029614      0.019646
O	      2.14035      2.06492      2.23303         0.127428      0.058591     -0.016825
O	      4.29810      4.16643      2.22566        -0.008966     -0.014935     -0.045632
O	      4.33532      2.03391      4.11833         0.135105      0.211861      0.053349
O	      6.31044      4.03334      4.33338         0.175413     -0.055194      0.080303
O	      6.44579      2.04538      6.53252         0.000107      0.051470      0.250223
O	      2.21667      4.19065      4.30090        -0.095982      0.067075      1.140710
O	      4.20694      6.24076      4.22411         0.053080     -0.202417     -0.082949
O	      4.19884      4.15580      6.49692        -0.982776      0.008513     -0.082411
O	      6.40403      6.33123      6.41490         0.040067      0.447676      0.099061
O	      6.37796      4.08820      8.48303         0.118238     -0.112834     -0.021572
O	      8.74816      6.21991      8.64639         0.235046      0.038210     -0.144953
O	      2.15005      6.09059      6.15594         0.096214     -0.035138     -0.164525
O	      4.31490      8.26429      6.55292         0.765906      0.097589      0.091724
O	      4.16201      6.27840      8.48344        -0.246108      0.203673      0.018796
O	      6.31021      8.21351      8.45585         0.053845      0.098715     -0.875903
O	      6.61408      6.27452     10.46492         0.052925     -0.001373      0.049872
O	      8.45749      8.19192     10.45152        -0.076465      0.015613      0.015136
