# total energy = -231.68326592 eV
 
CRYSTAL
PRIMVEC
-0.009095 6.515105 6.361782 
6.131962 0.027263 6.326151 
4.097252 4.329177 0.008448 
PRIMCOORD
36 1
Li	      2.11410      8.57366      6.40386         0.035316     -0.022162      0.012081
Li	      8.08542      4.51722      8.57366         0.009011     -0.004388     -0.000993
Li	      1.96934      2.41560      4.31083        -0.028867      0.034648      0.040976
Li	      6.09519      4.45009      6.48965        -0.014517      0.036608     -0.009581
Li	      0.15017      4.20427      4.18526        -0.009345      0.008881     -0.004252
Li	      2.10967      6.37554      4.14388         0.007461      0.033696      0.021060
Li	      2.03405      4.40797      6.27480        -0.012288      0.015670      0.030752
Li	      4.16842      4.31343      8.35306        -0.010271      0.007707     -0.050300
Li	      6.20711      6.29111      8.40629        -0.044122     -0.085721     -0.064062
Ti	      8.11700     10.74983     10.60807        -0.016057     -0.156006      0.218956
Ti	      6.17427      8.56253     10.56919         0.157583     -0.145541     -0.053525
Mn	      4.03188      2.16926      2.07624        -0.023170     -0.023511     -0.192541
Mn	      6.15148      2.31532      8.49495         0.020960      0.056462      0.069879
Mn	      4.03566      4.49387      4.27561        -0.025284      0.030231      0.177777
Mn	      8.05498      6.56010      6.38873        -0.170738      0.112409     -0.006938
Co	      4.10286      6.54220      6.35303        -0.098548      0.108181     -0.202038
Co	      2.04280      0.03262      2.12685         0.008514      0.024490     -0.098050
Ni	      4.13714     10.79049      6.37637        -0.001994      0.008252      0.030047
O	      2.07921      1.98045      2.12066         0.049945     -0.007182      0.040637
O	      4.19358      4.52808      2.19041        -0.013194     -0.024078     -0.029587
O	      4.10849      2.03349      4.13593         0.097229     -0.084389      0.019130
O	      6.13859      4.20572      4.14472         0.094495     -0.059056      0.000993
O	      5.98073      2.11943      6.15795        -0.076512      0.012596     -0.163451
O	      8.20807      4.36739      6.12083        -0.100638      0.025718     -0.406130
O	      2.17653      4.38849      4.21880         0.055117      0.024514     -0.068997
O	      4.11006      6.58100      4.26763        -0.012471      0.008293      0.039318
O	      4.09471      4.36676      6.19329         0.008065      0.105644     -0.035268
O	      6.16863      6.51120      6.39907         0.133431     -0.154006      0.126983
O	      6.16321      4.18091      8.44415         0.061743     -0.030644     -0.001130
O	      8.23530      6.54387      8.35417         0.050364      0.013679     -0.067892
O	      2.04165      6.54441      6.57903         0.362491     -0.068729      0.185518
O	      4.09578      8.72372      6.53002        -0.058235     -0.175840      0.074059
O	      3.98866      6.48051      8.56044        -0.040932      0.048113      0.210660
O	      5.99758      8.90475      8.62258        -0.019751     -0.051513      0.190628
O	      6.05401      6.64037     10.51963        -0.075552      0.212561     -0.067096
O	      8.05887      8.81628     10.58820        -0.299240      0.164413      0.032380
