# total energy = -235.63106205 eV
 
CRYSTAL
PRIMVEC
0.009509 6.387866 6.293955 
6.283888 0.023503 6.279086 
4.194300 4.253602 0.011205 
PRIMCOORD
36 1
Li	      4.23024      8.50138      8.39384         0.015610     -0.056546     -0.010000
Li	      4.18782      6.40447     10.45704        -0.009559     -0.043611     -0.047490
Li	      2.09635      4.27549      2.15976         0.007064      0.029431      0.024610
Li	      4.10549      4.29802      4.25279         0.007532      0.025427      0.007983
Li	      8.29618      6.46092      6.33353        -0.046777      0.059679      0.014035
Li	      6.27789      4.39570      6.31875        -0.005101     -0.000674      0.015839
Li	      2.14807      6.31726      4.17836        -0.004808     -0.005104      0.002157
Li	      2.18957      4.16317      6.21690         0.043809     -0.084645     -0.018014
Li	      6.31744      6.37731      8.30304         0.018671     -0.037861     -0.056686
Ti	     10.37941     10.55215     12.57227        -0.148952     -0.097196      0.033520
Ti	      6.19011      2.15046      4.20881        -0.046024     -0.023007     -0.087613
Mn	      6.29229     10.62415      8.38375         0.089422      0.134974     -0.015487
Mn	     10.43809      6.46505      8.44138         0.078569     -0.014798     -0.032912
Mn	      2.13162      2.20595      4.22141        -0.034926     -0.127665      0.012021
Mn	      4.20211      4.25872      8.35952         0.030076      0.029936      0.091056
Co	      6.34117      4.31683     10.45694        -0.028993     -0.175786      0.004969
Co	      4.23325      6.32623      6.25455        -0.061590     -0.030817     -0.019224
Co	      8.38363      2.17086      6.26723         0.107598     -0.009228      0.096497
O	      1.93745      2.18360      2.21365         0.008032      0.009102     -0.007035
O	      4.29501      4.30476      1.96463        -0.053671     -0.004043     -0.057454
O	      4.34684      2.12826      4.10780         0.230953     -0.029921      0.082800
O	      6.28383      4.19321      4.06603        -0.007788     -0.059028      0.037658
O	      6.32362      2.06804      6.19430         0.445707      0.020656      0.028329
O	      8.51787      4.24517      6.32665         0.059556     -0.436330      0.010317
O	      2.07622      4.17243      4.18557         0.003554      0.085942     -0.022730
O	      4.15620      6.38484      4.19664        -0.002617     -0.010236     -0.016673
O	      4.18200      4.27539      6.47505         0.015775     -0.022364     -0.048778
O	      6.28882      6.36885      6.12424         0.063459      0.057134      0.052429
O	      6.13463      4.31641      8.39134         0.003428      0.086938      0.067548
O	      8.53227      6.56366      8.38737        -0.043861     -0.005052     -0.032935
O	      2.05544      6.44424      6.43457        -0.021826      0.475543     -0.126376
O	      4.19994      8.60211      6.32935        -0.566727      0.153854     -0.099927
O	      4.07797      6.23122      8.35328        -0.037984      0.009850      0.005796
O	      6.43515      8.41508      8.52653        -0.045936      0.022660      0.045008
O	      6.34114      6.52399     10.62028         0.002027      0.104574      0.178630
O	      8.34966      8.56865     10.40670        -0.063701     -0.031790     -0.111868
