# total energy = -227.18074832 eV
 
CRYSTAL
PRIMVEC
0.016148 6.413452 6.130736 
6.389552 -0.009368 6.156255 
4.251491 4.284507 0.002265 
PRIMCOORD
36 1
Li	      4.31123     10.56449      6.21235        -0.008141      0.017715      0.014050
Li	      2.25001      8.47187      6.21366         0.018861     -0.043998     -0.058069
Li	      2.11599      6.54367      8.00798        -0.007570      0.047257     -0.057350
Li	      0.11379      2.12695      1.97541        -0.016779     -0.023022     -0.010054
Li	      2.07885      2.19290      4.02933        -0.053475      0.062692      0.074144
Li	      6.42842      4.31445      6.18300         0.023954      0.040843      0.021383
Li	      4.32222      8.50677      4.21319        -0.010650     -0.046427      0.017112
Li	      6.27747      8.60203      6.16178        -0.019010      0.016034      0.024438
Li	      4.16483      6.59176      6.15912        -0.076076      0.043671      0.005984
Ti	      6.40319      2.20158      4.17220         0.140481     -0.036049      0.259374
Ti	      4.24997      4.40513      4.05152        -0.067377      0.630128     -0.149866
Mn	      8.49695      6.35931      6.17726        -0.056390     -0.122823      0.048931
Mn	      2.15014      6.38216      4.17191         0.100974      0.045593      0.140867
Mn	      4.30910      4.32206      8.13382         0.048777     -0.165633      0.026678
Mn	      6.37767      6.41735      8.16529         0.026646     -0.104778     -0.125771
Cu	      4.11793      2.10062      1.96028         0.083220     -0.020497      0.043935
Ni	      8.48018      4.28846      4.12211        -0.030097     -0.112074      0.138168
Ni	      2.11804      4.19659      2.02222        -0.039005      0.263652     -0.088585
O	      4.24559      8.55311      6.24775         0.053365     -0.026236     -0.246638
O	      2.13433      2.22421      2.01667        -0.105454     -0.234551      0.121665
O	      4.25163      4.26577      2.17778         0.085585      0.072126      0.168755
O	      4.36707      2.13530      3.94688         0.009372      0.118994     -0.033942
O	      6.29258      4.11668      4.08824        -0.125949     -0.053010     -0.013769
O	      6.23740      2.09316      6.02324         0.164982      0.035502     -0.257574
O	      8.48274      4.44351      6.13243        -0.002315     -0.058794      0.016764
O	      2.28429      4.28936      4.09244         0.094430     -0.063059      0.096996
O	      4.30767      6.26788      4.14938        -0.039430     -0.509305      0.043611
O	      4.29714      4.05896      6.14333         0.048360      0.127045     -0.106599
O	      6.57277      6.39075      6.27114        -0.109083      0.026330     -0.084794
O	      6.25552      4.40404      8.23941         0.083700      0.002079      0.029000
O	      8.58964      6.38809      8.34005        -0.025885      0.032657      0.015273
O	      2.11402      6.42035      6.00050        -0.057748      0.005422      0.058122
O	      4.22815      6.36293      8.21674        -0.023821      0.109720     -0.229923
O	      6.59151      8.44402      8.23344        -0.091400     -0.049640     -0.075233
O	      6.36602      6.54311     10.12284         0.092907      0.020916      0.078893
O	      8.40248      8.57560     10.16425        -0.109959     -0.048480      0.094024
