# total energy = -226.56448478 eV
 
CRYSTAL
PRIMVEC
0.042068 6.555583 6.030823 
6.416967 -0.014561 6.082807 
4.249759 4.379699 0.016501 
PRIMCOORD
36 1
Li	      8.45725      2.27442      5.94930        -0.054614     -0.008451      0.027359
Li	      4.39652      8.62643      8.16826        -0.037648     -0.008179      0.031978
Li	      8.60760     10.66480     10.18085        -0.007519      0.090421     -0.069678
Li	      6.54838      8.70850     10.14190        -0.036982      0.014312      0.068099
Li	      2.32024      2.13586      4.07498         0.009590     -0.002382     -0.046499
Li	      4.46591      2.09617      6.01492         0.046132     -0.023045     -0.033534
Li	     10.36779      8.99182     10.14764         0.110416     -0.022755     -0.017716
Li	      8.45438      6.88009     10.06111         0.027037     -0.070956      0.019575
Li	      8.38217      8.77465      8.23148         0.037502      0.044802     -0.049435
Ti	      2.16846      4.32311      1.98467        -0.311314     -0.019009     -0.050352
Ti	      4.20396      6.65569      5.95658         0.019353      0.208360      0.052476
Mn	      6.42430     10.85873      8.10280        -0.016298      0.073613      0.194046
Mn	     10.63730      6.64230      8.16414         0.024705     -0.079464     -0.025126
Mn	      4.28883      4.23786      4.08413         0.252519      0.021925     -0.350824
Mn	      6.45232      6.59101      8.14565        -0.019427     -0.209669      0.018401
Cu	      6.56702      6.63193     11.99435         0.002798      0.002874     -0.057210
Cu	      6.39493      4.35226      6.07190        -0.112391      0.089905      0.071024
Cu	      6.39532      8.67384      5.97943        -0.040368      0.000437     -0.083822
O	      8.52974      8.76617     10.08227         0.006694     -0.041070      0.055110
O	      1.95728      2.38560      2.06137         0.041844      0.094887     -0.048158
O	      4.35322      4.30680      2.05955        -0.167313     -0.054410      0.319502
O	      4.29935      2.41670      4.09888        -0.004981     -0.032790     -0.029438
O	      6.25675      4.36213      4.02481        -0.120219      0.001998     -0.189548
O	      6.42516      2.43059      6.24972        -0.064521     -0.037261     -0.156710
O	      8.85970      4.36761      6.18654        -0.163957      0.021520      0.056187
O	      2.38856      4.29521      3.96797        -0.071975     -0.056344      0.157880
O	      4.24543      6.31533      4.05252         0.005221      0.069606      0.089642
O	      4.11515      4.47020      5.95281         0.120527     -0.121482      0.410616
O	      6.19885      6.31073      6.17587        -0.135893     -0.060436     -0.210203
O	      6.65217      4.54317      8.09989         0.251009     -0.012225      0.351185
O	      8.70240      6.35969      8.11005        -0.009592      0.015763     -0.030783
O	      2.17798      6.64435      6.14365         0.186034      0.102551     -0.261451
O	      4.43837      8.47926      5.92095        -0.039920     -0.189816      0.020125
O	      4.09302      6.53695      7.96562         0.182443     -0.004949     -0.085060
O	      6.39599      8.52476      7.95301         0.074967      0.176109     -0.133230
O	      6.42920      6.58984     10.03481         0.016143      0.025608     -0.014427
