# total energy = -233.92190684 eV
 
CRYSTAL
PRIMVEC
0.012244 6.437812 6.350627 
6.183936 0.026233 6.336287 
4.117183 4.276943 0.023112 
PRIMCOORD
36 1
Li	      0.07075      0.07241      0.01405        -0.021742      0.007392      0.027584
Li	      1.95634      2.09501      0.13410         0.002044     -0.013668     -0.162445
Li	      2.00453      0.03430      2.07512        -0.065003     -0.027751     -0.016572
Li	      4.08808      2.31672      2.09969         0.118295      0.061468     -0.034995
Li	      6.26084      2.12193      8.31862        -0.068147     -0.022301     -0.057077
Li	      6.21830      4.25361      6.27817         0.007772     -0.076486      0.012243
Li	      2.01818      6.39838      4.37778        -0.135751      0.073666      0.006953
Li	      6.13681      8.60692      6.38391        -0.013949      0.053831      0.001502
Li	      6.18237      6.41100      8.45738         0.018722     -0.038515      0.172378
Ti	      4.04797      6.53592      6.44677        -0.479080      0.177840      0.238789
Ti	      8.14900      8.45790      8.46446        -0.160002     -0.048444      0.179410
Mn	      4.11175      0.02921      4.21562         0.240692     -0.262687     -0.052784
Mn	      8.24906      4.26338      8.40189         0.098319      0.474733      0.057363
Mn	      4.16046      4.34938      4.21055        -0.087648      0.039152     -0.077977
Mn	      4.15947      8.55972      4.28801        -0.396922      0.127739     -0.127147
Fe	      8.24238      6.39187      6.33549         0.338718      0.069040      0.080158
Co	      2.07442      2.16981      4.20673         0.125677      0.403152      0.061722
Cu	      6.22709      8.53898     10.62561         0.345718     -0.234736     -0.170170
O	      2.07891      2.33038      2.14705        -0.032788     -0.685143      1.160704
O	      3.97782      4.32487      2.14835        -0.005732     -0.002129     -0.266474
O	      4.16184      2.22276      4.26801        -1.664786     -0.157847     -0.127726
O	      6.26778      4.39377      4.16822        -0.063728      1.292722      0.035216
O	      6.10146      2.17600      6.21123         0.006440      0.078329      0.209054
O	      8.20140      4.40049      6.28181        -0.069463     -0.058607     -0.030380
O	      2.01258      4.32018      4.24576         0.456411     -1.039326      0.155038
O	      4.10783      6.44701      4.41318         1.143924      0.082726     -0.059042
O	      4.15694      4.34340      6.46277         0.003358     -0.006277      0.215192
O	      6.17926      6.46821      6.31856        -0.013931     -0.125491     -1.131571
O	      6.25051      4.27428      8.63845        -0.062659     -0.010663     -0.134601
O	      8.25738      6.50647      8.34726        -0.091350     -0.005028      0.017577
O	      2.20884      6.43146      6.42337         0.338402      0.010612     -0.056400
O	      4.12868      8.43251      6.26136        -0.020380     -0.230749      0.278087
O	      4.17986      6.26410      8.40423        -0.017752      0.076123     -0.185686
O	      6.31898      8.53285      8.60483         0.114439     -0.018135     -0.198545
O	      6.08730      6.28205     10.60937         0.053183      0.115477     -0.013293
O	      8.33838      8.54024     10.44363         0.058700     -0.080023     -0.006086
