# total energy = -235.00549240 eV
 
CRYSTAL
PRIMVEC
0.009156 6.345263 6.329944 
6.198705 0.019177 6.320818 
4.144337 4.236270 0.000842 
PRIMCOORD
36 1
Li	      0.07079      6.37579      6.31574        -0.010238     -0.012584     -0.040351
Li	      4.10820      2.18454      2.04062        -0.002992     -0.020104     -0.026567
Li	      6.22216      2.14120      4.22869         0.018774      0.004545     -0.016415
Li	      0.02317      2.06501      2.06291         0.033614      0.009631     -0.012234
Li	      6.19636      6.37305      4.25006        -0.027689      0.033269      0.023798
Li	      6.15256      4.24996      6.31276         0.013302      0.006712      0.001948
Li	      2.07499      6.30089      4.23765         0.004017      0.003111     -0.000798
Li	      6.26879      8.42773      6.36240        -0.013234     -0.031962     -0.008172
Li	      4.17005      6.30786      6.31204        -0.018532      0.011364      0.027197
Ti	      4.10344      0.21847      4.23584        -0.085208      0.201528      0.067222
Ti	      4.18805      8.29053      4.31103         0.085859     -0.327713      0.271949
Mn	      8.16235      2.10021      6.29962        -0.023297      0.013920      0.070625
Mn	      6.15396      4.27332      2.11197        -0.045809      0.032323     -0.035968
Mn	      4.16143      4.17778      8.36175         0.021685     -0.000634     -0.115239
Mn	      6.20328      6.39003      8.37849        -0.021629      0.006591     -0.131780
Fe	      2.18603      4.20301      2.15150        -0.050044     -0.029112     -0.099620
Co	      4.19126      2.12813      6.34555         0.028238     -0.025600     -0.055397
Ni	      4.14802      4.29994      4.31205         0.005189     -0.013814      0.026210
O	      2.06884      2.29574      2.09631        -0.019490     -0.147454      0.011058
O	      4.17422      4.21695      2.23282         0.119676     -0.008693     -0.093928
O	      4.13947      2.07130      4.25024         0.009390     -0.279888      0.028496
O	      6.26284      4.27237      4.10004         0.215436     -0.017281     -0.007355
O	      6.25740      2.10451      6.26293         0.042911     -0.001956      0.006454
O	      8.25003      4.15800      6.19488         0.021872      0.002431     -0.101337
O	      1.99287      4.25389      4.19029        -0.220408     -0.000647      0.055018
O	      4.14474      6.43337      4.26663        -0.015142      0.426157      0.007703
O	      4.16986      4.20638      6.37400        -0.021866      0.049264      0.191166
O	      6.26017      6.34171      6.48873        -0.019576     -0.020260      0.033008
O	      6.17884      4.33507      8.51132        -0.011273      0.000365      0.024323
O	      8.34465      6.19612      8.43338         0.002569      0.172199     -0.035816
O	      2.03528      6.47623      6.49407         0.019711     -0.029652      0.017456
O	      4.01045      8.50200      6.16194         0.030833     -0.014664     -0.235446
O	      4.01334      6.41948      8.55169        -0.005080     -0.009178      0.072229
O	      6.33873      8.36993      8.41219        -0.020947     -0.009418      0.031352
O	      6.05998      6.29100     10.39034        -0.051404      0.000096      0.034881
O	      8.36506      8.51427     10.38446         0.010782      0.027108      0.014327
