# total energy = -237.08529539 eV
 
CRYSTAL
PRIMVEC
0.011315 6.399292 6.094658 
6.527293 0.015820 6.088730 
4.345981 4.257646 0.016759 
PRIMCOORD
36 1
Li	     10.68729      4.30311      6.13104        -0.042400      0.041284     -0.005971
Li	      8.69724      2.38643      6.07426         0.002973      0.020496     -0.007573
Li	      8.68788     10.55194     10.23873        -0.036739     -0.076871      0.009060
Li	      8.54573      4.31862      8.08034        -0.031685     -0.025765     -0.018896
Li	      6.58600      4.29944      6.15920         0.021732     -0.037936      0.000008
Li	      2.28871      4.22050      6.10922        -0.009806      0.029155      0.005904
Li	      4.41840      6.24220      6.10005         0.019713     -0.038453      0.020873
Li	      4.48655      4.23955      8.08361         0.059284      0.018660      0.006377
Li	      6.54422      6.32029      8.08149        -0.072593      0.024046     -0.010609
Ti	      4.39670      8.37207      7.96794         0.141077     -0.095908     -0.408141
Ti	      8.49594      6.45314     10.25191        -0.181025      0.050635      0.178003
Mn	      2.22888      6.36926      8.02362         0.035649     -0.134716     -0.046206
Mn	      6.53293      2.21815      8.07544         0.030644     -0.055671     -0.073768
Mn	      2.21034      2.18553      4.09205         0.080294     -0.040967      0.086895
Mn	      4.36722      4.27679      4.10195         0.028418      0.074371     -0.010895
Fe	      8.64752      6.29310      6.20616         0.086773      0.169325     -0.110667
Co	      6.55999      2.15660      4.12787         0.016011     -0.151015      0.027013
Co	      4.34472      8.55402      4.12707        -0.152149     -0.068341     -0.084291
O	      2.35843      2.21387      2.15110        -0.028411      0.044707     -0.088606
O	      4.53983      4.36797      2.10819        -0.014905     -0.002299     -0.026578
O	      4.26122      2.26345      4.01459         0.055727      0.007380      0.033774
O	      6.55487      4.20746      3.90096         0.120649      0.153427     -0.060489
O	      6.43975      2.17324      6.15878        -0.036316      0.023547     -0.021321
O	      8.70089      4.40833      6.08352        -0.024095     -0.105392      0.032942
O	      2.14664      4.42117      4.07631         0.047556      0.021405     -0.016374
O	      4.46462      6.32026      4.02153        -0.006852      0.076600     -0.006424
O	      4.36570      4.17068      5.97369        -0.048511     -0.036741      0.086815
O	      6.60086      6.39120      5.99421        -0.024402     -0.006379      0.041891
O	      6.51942      4.12399      8.17555         0.014403      0.051131      0.144138
O	      8.67753      6.41116      8.21701        -0.028167     -0.006018      0.070437
O	      2.20931      6.37607      6.07551         0.008070      0.012652     -0.089950
O	      4.31567      8.58784      6.16750        -0.036698     -0.031314      0.378465
O	      4.23797      6.48669      8.08801        -0.002603      0.202284     -0.018542
O	      6.28256      8.48643      8.16939        -0.122837      0.034397     -0.003976
O	      6.63915      6.46912     10.17298         0.190532     -0.055026      0.014366
O	      8.76351      8.37276     10.19097        -0.059311     -0.086691     -0.027686
