# total energy = -232.07198663 eV
 
CRYSTAL
PRIMVEC
0.031928 6.355694 6.241436 
6.293072 0.009786 6.264026 
4.187902 4.244782 0.014164 
PRIMCOORD
36 1
Li	      8.36718      2.18432      6.26641         0.001239      0.043847     -0.007863
Li	      2.14447      6.33665      8.32120         0.010513     -0.053323     -0.005935
Li	      8.31460      4.24357      4.23766        -0.018531      0.008195      0.043086
Li	      8.33611      4.24808      8.31534        -0.010807      0.029945      0.004697
Li	      4.27670      4.18119      4.22349         0.001245     -0.053697     -0.002283
Li	      6.27932      4.24539      6.29589         0.011253     -0.036017      0.007513
Li	      2.21602      4.22997      6.26512        -0.004940     -0.003139     -0.001893
Li	      4.28792      4.26190      8.27190         0.033514     -0.014266     -0.008721
Li	      6.25119      6.31556      8.29866        -0.025222     -0.002730     -0.013982
Ti	      4.24038      8.43143      8.25624         0.106815     -0.144286     -0.009754
Ti	      2.12929      6.29196      4.13574        -0.019614     -0.091194     -0.100396
Mn	      6.34755      2.24543      4.16227        -0.008421      0.004465      0.011803
Mn	      6.29707      6.24887      4.17602        -0.041299     -0.013421      0.018600
Mn	      8.35216      6.40783      6.35380        -0.069833     -0.007074     -0.025626
Mn	      6.26251      4.29127     10.39706         0.019295      0.047172      0.049064
Fe	     10.45510      4.32547      6.36071         0.036405      0.072623     -0.148440
Cu	      4.20166      6.20182      6.27556         0.030118     -0.063249      0.003932
Ni	      0.06343      2.12690      2.08143         0.044086     -0.026682     -0.055977
O	      2.14771      2.11634      2.22169         0.093715     -0.006928     -0.053536
O	      4.21981      4.20323      2.01985        -0.010486     -0.087263      0.165668
O	      4.06408      2.12495      4.03119         0.020166     -0.013843     -0.003409
O	      6.32507      4.12787      4.16965        -0.025190      0.016518     -0.002100
O	      6.26122      2.12414      6.21539         0.106473      0.043170     -0.080746
O	      8.49014      4.44612      6.26279        -0.094283     -0.117252      0.003251
O	      1.93327      4.37351      4.19551         0.103277      0.142458      0.004000
O	      4.21012      6.26766      4.24968        -0.043785     -0.011111     -0.077012
O	      4.17366      4.03614      6.29119         0.011062      0.062690     -0.007567
O	      6.32368      6.32073      6.10710        -0.061443     -0.030414      0.054976
O	      6.30690      4.18476      8.50123         0.013274      0.122583      0.005115
O	      8.48033      6.35261      8.48893        -0.109144      0.029168      0.167862
O	      2.11993      6.38191      6.12135        -0.027826      0.025167     -0.014490
O	      4.16504      8.66095      6.27019         0.004179      0.039981     -0.008638
O	      4.22717      6.52884      8.17868        -0.019148      0.166730      0.150313
O	      6.15045      8.49690      8.45043        -0.136380     -0.030617     -0.044170
O	      6.45680      6.54719     10.46465         0.091141     -0.027131     -0.015441
O	      8.52139      8.40494     10.43478        -0.011420     -0.021071     -0.001901
