# total energy = -230.87565718 eV
 
CRYSTAL
PRIMVEC
-0.020184 6.318182 6.321274 
6.360432 0.005651 6.295232 
4.253859 4.208137 -0.009400 
PRIMCOORD
36 1
Li	      2.15424      8.37612      6.27946        -0.052042      0.016719      0.012968
Li	      6.48491     10.45427      8.50985         0.045451     -0.025983     -0.016182
Li	      4.28339      8.31480      8.46454         0.007495     -0.023734      0.007333
Li	      6.30677      2.22990      4.06213         0.046437     -0.056240     -0.021844
Li	      6.47779      6.13006      4.27419         0.056971      0.065281     -0.032566
Li	      6.32144      4.27917      6.07610         0.091018     -0.032783      0.018870
Li	      6.43378      8.37487      6.37091        -0.061146     -0.008413     -0.006073
Li	      4.15242      6.23011      6.43866        -0.082479     -0.059805      0.050868
Li	      8.35123      8.48437      8.37879         0.006989     -0.010348      0.074332
Ti	      4.34494     10.44866      6.36491         0.000523      0.019852     -0.274049
Ti	      0.15350      2.15905      2.08581         0.266935      0.150628     -0.269896
Mn	      4.19727      8.39381      4.26148         0.022718      0.121752     -0.059436
Mn	      4.18952      2.21997      6.27429         0.235926     -0.518123     -0.181352
Mn	      8.45933      6.32536     10.51142        -0.187649      0.182767      0.000112
Mn	      6.24452      6.40829      8.34036        -0.034403     -0.142406      0.112593
Fe	      8.45170      4.19368      8.35361        -0.018029      0.080418     -0.037521
Cu	      4.18341      0.03033      4.14559         0.064968      0.007042      0.016994
Cu	      4.38450      4.18704      4.22901         0.074334      0.102737      0.059903
O	      6.51819      4.17120      4.15033        -0.306362      0.015136      0.017392
O	      1.97496      2.11768      2.08165        -0.315275     -0.114780      0.047882
O	      4.23381      4.33510      1.97757         0.087426     -0.044483      0.200651
O	      4.24922      2.26686      4.34652        -0.007832     -0.204486      0.220390
O	      6.24046      2.08049      6.46675        -0.012814      0.090446      0.175814
O	      8.60626      4.39788      6.26515        -0.006173      0.103937     -0.005342
O	      1.88926      4.38487      4.14710        -0.029062     -0.169362      0.091585
O	      4.14676      6.18923      4.06279        -0.011811      0.059448     -0.027534
O	      4.24171      4.09154      6.27076         0.022992      0.271132     -0.163853
O	      6.57103      6.29933      6.29574        -0.107024      0.042797     -0.110581
O	      6.30150      4.18516      8.55111        -0.021782     -0.076947      0.020347
O	      8.45310      6.34473      8.29895        -0.038873      0.067438     -0.092435
O	      1.94726      6.33614      6.30627         0.031127     -0.026308      0.103289
O	      4.17607      8.57219      6.23999        -0.004434     -0.045834      0.061088
O	      4.31099      6.30732      8.46460         0.004339      0.004927     -0.094085
O	      6.29331      8.24440      8.39818         0.027291      0.142195     -0.038159
O	      6.32775      6.41294     10.64871         0.249708     -0.008263      0.105882
O	      8.63783      8.22325     10.54657        -0.045455      0.023647      0.032616
