# total energy = -91.62566433 eV
 
CRYSTAL
PRIMVEC
-0.000006 2.050228 2.049804 
4.092609 0.000040 -0.000050 
0.000112 8.677110 -8.675649 
PRIMCOORD
16 1
Li	      2.04705      2.22083     -0.17265         0.000229      0.090950     -0.089941
Li	      0.00093      2.17116     -2.16990        -0.000141     -0.000968      0.000517
Li	      2.04751      4.16812     -2.12034         0.000247     -0.089570      0.091447
Li	      0.00124      8.55734     -4.46034        -0.000362     -0.000662      0.000856
Mn	      0.00080      2.05992      2.03540        -0.000526      0.115709     -0.115744
Mn	      0.00140      6.37810     -2.27971        -0.001053     -0.114466      0.115464
Ni	      2.04766      6.50515     -4.45707        -0.000651      0.041420     -0.041007
Ni	      2.04730      8.55967     -6.51271        -0.000200     -0.041033      0.041116
O	      2.04750      8.55753     -4.46000        -0.000064     -0.000414     -0.001977
O	      0.00098      8.73794     -6.69104         0.000363      0.012675     -0.010301
O	      2.04772      6.50265     -2.40409         0.000731     -0.068873      0.067377
O	      0.00140      6.32690     -4.27873         0.000144     -0.012281      0.013651
O	      2.04726      4.21966     -0.12157        -0.000024      0.000098     -0.000891
O	      0.00134      4.46801     -2.41951         0.000473      0.059092     -0.059196
O	      2.04717     10.61238     -6.51599         0.000363      0.068280     -0.071430
O	      0.00073      1.91980      0.12543         0.000470     -0.059957      0.060058
