# total energy = -93.41544173 eV
 
CRYSTAL
PRIMVEC
2.062689 4.138070 2.062736 
2.108134 -4.183346 2.108138 
4.175393 -0.000027 -4.175460 
PRIMCOORD
16 1
Li	      6.25933     -0.01854     -2.06930        -0.006586     -0.029261      0.114109
Li	      2.14784     -2.08151     -0.01158         0.037405     -0.050675     -0.024136
Li	      4.21555     -0.02009     -0.02320         0.077208     -0.032911      0.011499
Li	      4.18493     -2.09950     -2.06211         0.018804     -0.010181      0.026220
Mn	      0.02988     -0.00027      0.00956        -0.688098      0.022936     -0.040353
Mn	      2.10781      2.05886     -0.01682        -0.042071      0.399218     -0.181259
Ni	      2.13315     -0.00009     -2.09350        -0.113680     -0.008679     -0.229942
Ni	      4.18031      2.05893     -2.08867        -0.154379      0.184934      0.036205
O	      6.43983     -0.02147      0.00074         0.127813      0.002849     -0.020736
O	      4.03312      2.05650     -0.02271        -0.158215     -0.197416      0.128819
O	      4.18881     -0.02297     -2.25105         0.173529     -0.095062      0.088737
O	      4.19553     -0.16305      2.20566         0.006611     -0.205843     -0.028628
O	      4.21147     -2.10087      0.15488        -0.045845      0.120159      0.282107
O	      2.08114      2.19781      1.96722         0.240215     -0.126353     -0.168403
O	      1.98294      0.11875     -0.00689         0.228153      0.001778      0.142848
O	      2.22075     -2.24294      2.10756         0.299137      0.024505     -0.137086
