# total energy = -230.46315513 eV
 
CRYSTAL
PRIMVEC
-0.018237 6.457878 6.175147 
6.374487 -0.026391 6.183176 
4.242350 4.303194 -0.010222 
PRIMCOORD
36 1
Li	      6.46310     10.63635      8.26233         0.030530     -0.069971     -0.055796
Li	      8.37681      4.31257      4.02570        -0.001149     -0.031715      0.022315
Li	      8.45446      4.32242      8.20693        -0.036732      0.049714     -0.007973
Li	      8.33492      6.57505      6.19170         0.027490      0.027343      0.027811
Li	      6.27781      4.50917      6.14866         0.041749     -0.016368      0.017365
Li	      6.51790      8.36095      6.27035         0.026222     -0.015026      0.009506
Li	      4.48800      6.26322      6.24513         0.016785     -0.031545      0.015159
Li	      4.12204      4.42745      8.08329         0.001598      0.014505      0.013489
Li	      6.29144      6.45633      8.03023         0.034452     -0.052017     -0.001644
Ti	     10.47959      4.28297      6.28566        -0.230038     -0.001206      0.042042
Ti	      0.12260      4.36809      4.04743        -0.018546      0.127957     -0.304604
Mn	      2.09345      2.13695      0.02317         0.012608      0.102792     -0.006152
Mn	      6.35636      2.19614      8.23094        -0.087892      0.077991      0.001063
Mn	      4.26704      4.25457      4.17672        -0.029559     -0.023411      0.004424
Mn	      8.50540      6.49147     10.30549         0.015259     -0.007755     -0.024136
Fe	      4.41365      8.33407      8.20512        -0.050293      0.082848     -0.084517
Ni	      6.29806      2.18333      4.09474         0.083024     -0.033450      0.050293
Ni	      6.41566      6.32789      4.20126         0.025460     -0.050561     -0.114980
O	      1.94114      2.16190      1.97722         0.022048      0.021653      0.025243
O	      4.20294      4.35106      2.04637        -0.050521     -0.097864     -0.106264
O	      4.19208      2.12449      3.96083         0.042710     -0.011688      0.112746
O	      6.21247      4.25396      4.11436         0.012323     -0.000090     -0.046756
O	      6.24047      1.92535      6.13132         0.006357     -0.100261      0.246371
O	      8.59085      4.06727      6.17751         0.209808      0.000483      0.036768
O	      2.09836      4.46880      4.12791        -0.073131      0.058965      0.015683
O	      4.34613      6.67603      4.16675        -0.099865      0.040718     -0.111262
O	      4.24034      4.29912      6.02115        -0.003020      0.013786     -0.010484
O	      6.43780      6.42094      6.13864        -0.014506      0.009195      0.169242
O	      6.39463      4.27721      8.39585         0.038923      0.100287      0.272489
O	      8.70173      6.47447      8.40019         0.000681      0.010791     -0.052654
O	      1.93087      6.64890      6.07238        -0.024427     -0.040818      0.071748
O	      4.29592      8.78725      6.19834        -0.022319      0.068056     -0.068620
O	      4.20028      6.49675      8.18779        -0.061014     -0.192680     -0.013357
O	      6.31873      8.54788      8.29684         0.126317      0.018406     -0.211313
O	      6.32381      6.28451     10.41033        -0.003839     -0.094832      0.055577
O	      8.58417      8.48985     10.39986         0.032507      0.045771      0.011176
