# total energy = -237.98618291 eV
 
CRYSTAL
PRIMVEC
-0.007862 6.641611 6.243900 
6.339799 -0.024945 6.263500 
4.199105 4.414053 0.008600 
PRIMCOORD
36 1
Li	      6.23846      0.25638      6.25284        -0.002559      0.014265     -0.004057
Li	      8.23416      2.36807      6.30593        -0.023987      0.010786     -0.000104
Li	      6.35073      2.15474      8.12660        -0.024051      0.017666      0.008319
Li	      8.40789      4.43243      8.15645        -0.036318      0.019748     -0.063511
Li	      4.18684      4.42144      4.11803        -0.002094      0.021213      0.001303
Li	      8.57214      6.38375      6.28665        -0.005176     -0.016149      0.024625
Li	      6.44389      4.20560      6.27335        -0.007114     -0.011146      0.010993
Li	      8.37139      6.59239     10.43878        -0.013443      0.007820      0.007071
Li	      6.37816      6.50880      8.34653         0.018654     -0.086471      0.004977
Ti	      4.23313      6.57340      6.22366         0.066624      0.008522     -0.286803
Ti	      8.52466      8.50403      8.37309         0.402001     -0.510642      0.165427
Mn	      2.11702      0.07670      2.07976        -0.080011      0.079739      0.017010
Mn	      8.44039      4.41984      4.24468         0.083160     -0.055247      0.076615
Mn	      6.33711      4.49596     10.43165         0.023216      0.013377     -0.038038
Mn	      6.32972      8.80090      6.31538        -0.029542     -0.020964     -0.111684
Fe	      4.16959      2.39115      2.11090         0.027048     -0.091165     -0.079625
Fe	      2.14343      2.26263      4.18337        -0.030091     -0.046965      0.021371
Co	      6.30245      2.10431      4.28247         0.116381     -0.029411      0.175240
O	      2.18427      2.31828      2.16538        -0.000131     -0.016568     -0.015544
O	      4.37823      4.32747      2.05115         0.051904      0.088730      0.004261
O	      4.17101      2.27138      4.09201         0.045043      0.012116      0.030103
O	      6.40728      4.55992      4.06454         0.007414      0.005227     -0.035764
O	      6.31430      2.21804      6.20009        -0.029121     -0.004537     -0.039828
O	      8.42303      4.38844      6.12344         0.010763     -0.023616     -0.068809
O	      2.12263      4.30760      4.34129         0.037750      0.031730      0.144035
O	      4.26369      6.60074      4.33974        -0.012489      0.009537      0.344138
O	      4.09159      4.58213      6.41248        -0.011951      0.066925      0.068976
O	      6.17568      6.57568      6.23818        -0.158921      0.007998      0.004479
O	      6.16620      4.38697      8.31042        -0.445618     -0.071162     -0.012152
O	      8.42543      6.69007      8.34244        -0.007261      0.547267     -0.003032
O	      2.26538      6.64814      6.35977         0.113663     -0.003514      0.024078
O	      4.33995      8.62144      6.38398         0.066180     -0.034607     -0.000161
O	      4.10665      6.68267      8.36973        -0.001963      0.024509     -0.047396
O	      6.33722      8.81412      8.31341        -0.012731     -0.005031     -0.099133
O	      6.18167      6.61587     10.41345        -0.067655      0.018588     -0.025270
O	      8.36683      8.78477     10.27086        -0.067574      0.021430     -0.202112
