# total energy = -235.66076983 eV
 
CRYSTAL
PRIMVEC
0.003353 6.368796 6.518667 
6.123780 0.032588 6.488752 
4.099011 4.242405 0.005653 
PRIMCOORD
36 1
Li	      2.07388      8.47585      6.50590         0.015533      0.026350     -0.008434
Li	      4.10982      2.12634      2.23226        -0.024882     -0.001583      0.026468
Li	      4.10680      6.39942     10.83327         0.047379     -0.049205      0.000552
Li	      6.09342      2.15070      4.28124        -0.005057     -0.005309      0.001001
Li	      2.08530      4.15993      2.24861        -0.004124     -0.084000     -0.051266
Li	      2.07195      2.16553      4.25935        -0.027113     -0.041792     -0.030489
Li	      2.04791      6.32263      4.39320         0.016642      0.072472      0.009423
Li	      2.03951      4.28009      6.49317         0.010178      0.019831      0.050950
Li	      6.10779      6.52609      8.70628         0.009470      0.120806      0.009964
Ti	      6.12423      6.39583     12.86529        -0.198504      0.029071     -0.230361
Ti	      4.11676      6.43056      6.49914         0.088206      0.009953     -0.031170
Mn	      0.08802      4.24898      4.28027        -0.180227      0.172922     -0.100977
Mn	      4.11136      6.31127      2.17739         0.071446     -0.000765     -0.000552
Mn	      4.01457      2.19817      6.44592        -0.000499     -0.029435      0.204628
Mn	      6.22880      4.21853      6.38950        -0.001957     -0.048059      0.069305
Fe	      6.12946      4.24744      2.29865        -0.070345     -0.027931     -0.216927
Fe	      8.11245      8.51826      8.76421         0.134746     -0.016067     -0.006630
Cu	      3.99886      4.20518      4.35424        -0.086699      0.012467     -0.094909
O	      1.92930      2.01541      2.19925        -0.041731      0.046358     -0.001896
O	      4.12448      4.32240      1.97589        -0.055100      0.013955     -0.130473
O	      4.01566      2.24357      4.55348        -0.041339     -0.000657     -0.193227
O	      6.03843      4.24009      4.26741        -0.000259      0.014018      0.109758
O	      6.06798      2.03364      6.42627        -0.086170     -0.160783     -0.018050
O	      8.31371      4.23791      6.47858         0.238514     -0.017284     -0.076145
O	      1.98685      4.27810      4.29113         0.380777     -0.091568      0.059274
O	      4.05164      6.27471      4.55269         0.002130     -0.063108      0.192677
O	      4.09558      4.42946      6.68780        -0.082784      0.111948      0.140721
O	      6.07724      6.40158      6.58061        -0.061788      0.090280      0.019316
O	      6.13614      4.08011      8.73136         0.011326     -0.045689     -0.101274
O	      8.25548      6.47190      8.44818        -0.043903     -0.054763      0.024010
O	      2.04749      6.38869      6.59473         0.042401      0.010375     -0.030785
O	      4.10399      8.45527      6.42511         0.040118     -0.039579      0.138037
O	      4.05023      6.38474      8.55128         0.035586      0.037075     -0.019109
O	      6.17321      8.58576      8.75940        -0.109091      0.020719     -0.018190
O	      6.17686      6.39920     11.00027         0.036327      0.014776      0.220601
O	      8.36941      8.53607     10.69798        -0.059206     -0.045795      0.084180
