# total energy = -239.35402286 eV
 
CRYSTAL
PRIMVEC
0.013468 6.304942 6.251748 
6.499336 -0.001294 6.266517 
4.322562 4.202782 0.009568 
PRIMCOORD
36 1
Li	      6.55007      6.29581     12.39551        -0.012472     -0.010652     -0.006859
Li	      6.43343      4.21953      2.10855        -0.077472     -0.020064     -0.021620
Li	      8.68554      4.21075      4.22881         0.036158      0.012365      0.022469
Li	      6.52997      2.09320      4.22580         0.024469      0.037090      0.014389
Li	      4.32508      4.20024      4.16515        -0.009651     -0.010869     -0.018917
Li	      6.51944      4.15243      6.23409         0.030143     -0.017767      0.010749
Li	      0.07118      4.28665      4.21703        -0.011866     -0.014633      0.014633
Li	      2.03508      6.22413      4.24622        -0.073370     -0.056484      0.005496
Li	      2.16756      4.27623      6.17286         0.017406      0.027840     -0.017671
Ti	      6.48830      6.17154      4.25722         0.001071     -0.384925      0.065405
Ti	      8.57168      8.44994      8.44367        -0.130484      0.010079      0.176499
Mn	      4.32477      6.24944      2.10569        -0.014101     -0.000496      0.016265
Mn	      2.16450      4.16706      2.12325         0.000427      0.008838     -0.068576
Mn	      4.38908      2.17137      2.10189         0.021569      0.001417     -0.042560
Mn	      4.43797      2.09879      6.15120         0.036210      0.007085      0.003086
Fe	      8.63255      8.38616     12.38963         0.016135      0.032558      0.045467
Fe	      4.24093      6.29598      6.18459         0.036629      0.018667      0.036643
Fe	      6.50329      6.27012      8.53187         0.026603      0.055487     -0.206791
O	      2.16092      2.08433      2.12755         0.005649      0.020955      0.047076
O	      4.24874      4.19943      2.09378         0.001231     -0.044472      0.022129
O	      4.21188      2.12152      4.11154        -0.121890      0.006396     -0.063487
O	      6.51127      4.34167      4.17168        -0.003114      0.447956      0.022908
O	      6.61174      2.08908      6.27703        -0.040554      0.000362      0.024019
O	      8.65463      4.11886      6.43107        -0.018728      0.018383      0.074292
O	      2.15028      4.10682      4.01972         0.029302     -0.048440     -0.035357
O	      4.48123      6.27163      4.22085         0.159982     -0.003205     -0.057809
O	      4.32577      4.29035      6.42782         0.027114     -0.036332      0.092839
O	      6.46318      6.36075      6.17941        -0.055011     -0.056506     -0.114611
O	      6.42583      4.23386      8.36592        -0.007297     -0.011935     -0.019234
O	      8.59606      6.39558      8.33902        -0.038299      0.074169      0.073383
O	      2.27804      6.38786      6.21370        -0.021593     -0.044352      0.049431
O	      4.23190      8.31993      6.32571         0.027203      0.033903     -0.005493
O	      4.46477      6.24860      8.28842        -0.085394     -0.068083      0.000554
O	      6.65055      8.35646      8.37401         0.196637      0.043018     -0.011735
O	      6.48852      6.31003     10.37164         0.026927      0.013351      0.113410
O	      8.65930      8.45739     10.36561         0.000434     -0.040702     -0.240422
