# total energy = -228.08264231 eV
 
CRYSTAL
PRIMVEC
0.002164 6.215834 6.206476 
6.450916 0.006091 6.202364 
4.305277 4.145561 -0.000398 
PRIMCOORD
36 1
Li	      4.24327      2.14981      2.14494        -0.047725      0.018791     -0.016183
Li	      6.38633      2.08938      4.13673        -0.011834      0.000826     -0.035077
Li	      4.36366      6.14551      2.08435         0.013432     -0.020894      0.025551
Li	      2.22631      4.11765      2.16892         0.034905      0.004584      0.027460
Li	      2.19892      2.12526      4.12723        -0.027387      0.029515      0.006448
Li	      4.28555      4.05031      4.13094         0.009546     -0.041937      0.006065
Li	      4.24504      2.15039      6.10909        -0.060353     -0.011663      0.071396
Li	      0.03183      4.12794      4.11772         0.032686     -0.006532     -0.033270
Li	      6.53841      8.17264      6.17669         0.092353      0.006032     -0.002444
Ti	      2.11854      2.10927      0.11032         0.067629      0.059267      0.311909
Ti	      2.37566      6.05238      4.08088         0.326155     -0.309584     -0.107721
Mn	      4.29614      4.13108      0.02921        -0.004641     -0.035284     -0.069238
Mn	      4.22727      0.10183      4.11380         0.048128      0.006020     -0.078603
Mn	      4.31546      4.13540      8.23623        -0.010138     -0.042766      0.090838
Mn	      6.45740      6.25073      8.25911         0.012882      0.034582      0.095397
Ni	      6.40931      4.11382      2.10713        -0.023094     -0.025257     -0.041230
Ni	      4.34950      6.25351      6.19992        -0.007384      0.086218      0.015514
Ni	      6.38538      4.16896      6.17357         0.058358     -0.121988      0.010828
O	      2.10967      2.10246      1.94589         0.002785      0.066666     -0.346682
O	      4.40427      4.10416      1.93153        -0.119281      0.007959      0.079270
O	      4.28911      1.93628      4.16193        -0.017321     -0.004120     -0.032019
O	      6.62883      4.16349      4.12993         0.103381      0.017920      0.039815
O	      6.60778      1.97579      6.19260        -0.000302      0.018008     -0.003848
O	      8.52519      4.07813      6.07195         0.013094     -0.106083     -0.073175
O	      2.16394      4.24740      4.17082         0.038395      0.323327     -0.003552
O	      4.20986      6.19087      4.15027        -0.300000     -0.037927     -0.111940
O	      4.35515      4.18415      6.29168        -0.104064     -0.107948     -0.069009
O	      6.36580      6.21882      6.32439         0.113971      0.117750     -0.059947
O	      6.27634      4.29533      8.24532         0.040869     -0.007432      0.074363
O	      8.61113      6.15881      8.40945         0.042228     -0.059695      0.177852
O	      2.22500      6.32888      6.12377        -0.085705      0.086395     -0.118573
O	      4.12775      8.37396      6.18767        -0.142871      0.044455     -0.016794
O	      4.21212      6.30153      8.38122         0.040981      0.063812      0.163091
O	      6.65427      8.21298      8.24065        -0.019345     -0.083244     -0.000762
O	      6.31705      6.22905     10.35599        -0.089597      0.021053     -0.024972
O	      8.60131      8.32823     10.30381        -0.020736      0.009179      0.049242
