# total energy = -237.91632987 eV
 
CRYSTAL
PRIMVEC
0.009860 6.229033 6.267516 
6.411402 -0.003925 6.281479 
4.280096 4.167560 -0.008422 
PRIMCOORD
36 1
Li	      2.21815      6.22902      8.30052        -0.064383      0.018615     -0.033139
Li	      4.30356      8.23449      8.29801        -0.010121      0.017585      0.001152
Li	      6.42237      8.30785     10.30413        -0.014593      0.021999      0.009436
Li	      0.13326      2.06489      2.10920         0.011135      0.042022      0.047374
Li	      2.12826      4.06051      2.15246        -0.009230      0.029710      0.033851
Li	      2.12417      2.09183      4.07555        -0.044065      0.023912     -0.073859
Li	      6.40932      8.30337      6.39205        -0.008793     -0.010544     -0.066310
Li	      4.29017      6.25263      6.35874         0.000573      0.027260     -0.045054
Li	      8.41500      8.38754      8.29407        -0.035630     -0.052975     -0.029070
Ti	      4.30436      4.05348      4.05800        -0.017522     -0.079524     -0.270892
Ti	      8.63730      6.22814     10.37163         0.223385     -0.156379     -0.182091
Mn	      4.30653      4.16003      0.07679        -0.015295      0.010742      0.082028
Mn	      2.16087      2.05950      0.07582        -0.025475      0.083202      0.169383
Mn	      4.24436      6.25031     10.33669        -0.033292      0.003745      0.123589
Mn	      8.54227      6.29041      6.35504        -0.030116     -0.020732      0.024799
Mn	      6.35937      4.19788      6.34587         0.076573     -0.068940      0.099153
Co	      0.07144      4.11018      4.15409         0.008879      0.133922      0.037187
Co	      6.37087      6.29371      8.36232         0.002529     -0.069844     -0.118029
O	      2.12861      2.10798      1.93000         0.070436     -0.065157     -0.155043
O	      4.34336      4.14959      2.22430         0.015634     -0.026375      0.294098
O	      4.22480      2.13639      4.17059         0.030152      0.076421     -0.006863
O	      6.30274      4.18608      4.33761        -0.034150     -0.013194     -0.022505
O	      6.37925      2.10316      6.33962         0.040750      0.126030     -0.036270
O	      8.60343      4.23763      6.12881         0.038173      0.057433     -0.115842
O	      2.26513      4.24720      4.17271         0.173670      0.220066     -0.046173
O	      4.17325      6.17242      4.18741        -0.127632      0.188369      0.039042
O	      4.29076      4.08869      6.18313        -0.129308     -0.011432     -0.003124
O	      6.49433      6.20092      6.38469        -0.002852     -0.046700      0.067218
O	      6.44792      4.32487      8.31468        -0.039729      0.076541      0.288249
O	      8.58331      6.26572      8.50906         0.002453      0.018533      0.219195
O	      2.04778      6.25393      6.14573         0.103964      0.015416     -0.082568
O	      4.21220      8.37286      6.19456        -0.038458     -0.183796     -0.362558
O	      4.23318      6.18435      8.46946         0.061327     -0.003020      0.022531
O	      6.42091      8.12353      8.35764        -0.072921     -0.059208      0.019649
O	      6.49731      6.21348     10.36765        -0.017821     -0.371140      0.070082
O	      8.58156      8.27656     10.60044        -0.088248      0.047435      0.001374
