# total energy = -233.55157780 eV
 
CRYSTAL
PRIMVEC
0.014183 6.520864 6.338471 
6.162730 0.030238 6.322389 
4.141130 4.369760 -0.012538 
PRIMCOORD
36 1
Li	     10.24393      4.46578      6.39535         0.030544      0.015939     -0.007868
Li	      8.18885      2.48394      6.42635        -0.014635      0.099101     -0.010215
Li	      8.16635      4.49166      4.34155         0.003407      0.004871     -0.006408
Li	      4.24252      6.44390      2.18317        -0.048782     -0.044970      0.016771
Li	      2.13250      4.27469      1.97877         0.009752      0.025546     -0.014685
Li	      2.02746      2.19014      4.06900         0.000999      0.086590     -0.009346
Li	      4.19595      4.36246      4.07666         0.005406     -0.008999      0.012992
Li	      6.24587      4.31387      6.26690        -0.068348     -0.001887     -0.033453
Li	      4.14500      6.57259      6.24183         0.026422      0.021451      0.008489
Ti	      2.06432      4.36358      6.24334        -0.013621      0.080487     -0.266315
Ti	      6.05470      6.41912      8.43924        -0.069150     -0.231315     -0.028302
Mn	      2.07734      0.19111      2.09225         0.081818     -0.035174     -0.030953
Mn	      6.15789      2.27581      4.22589         0.053559     -0.027433      0.044281
Mn	      8.28580      6.47977      6.33120        -0.010214      0.018386      0.001905
Mn	      4.07386      8.66045      4.27185        -0.003614     -0.019673      0.007042
Mn	      2.12256      6.49354      4.20975        -0.009724     -0.013793      0.018109
Cu	      8.22470      8.68833      8.44523         0.107922      0.034229     -0.019678
Ni	      4.08205      2.32159      2.10880        -0.012284      0.000803     -0.041392
O	      2.07274      2.20465      2.06543        -0.106406      0.014955      0.002056
O	      4.35284      4.38123      2.05035        -0.036886      0.095966     -0.019867
O	      4.24230      2.21459      4.16419         0.033490     -0.010954      0.067992
O	      6.20835      4.20119      4.06790         0.004999     -0.058258      0.070831
O	      6.11788      2.24230      6.12118         0.052112     -0.038529     -0.059053
O	      8.24866      4.59799      6.31496        -0.027836     -0.080644      0.007167
O	      2.08085      4.26691      4.39570         0.013899     -0.014237      0.257678
O	      4.01939      6.56709      4.20538         0.021718     -0.095402      0.004227
O	      4.03521      4.11990      6.47668        -0.060864     -0.037368     -0.117063
O	      6.24930      6.63951      6.50157        -0.040464      0.018614      0.098680
O	      6.03205      4.54197      8.47300         0.162537      0.217591     -0.011738
O	      8.09425      6.38617      8.56160        -0.022639     -0.053467      0.026134
O	      2.15718      6.28580      6.31694         0.013953     -0.109306     -0.036813
O	      4.28537      8.70059      6.37699         0.127443      0.015189     -0.073276
O	      4.14693      6.71013      8.41727         0.086048      0.016045      0.034420
O	      6.23187      8.60888      8.49739        -0.146521      0.017555      0.005925
O	      6.27659      6.64096     10.45551        -0.023800      0.086877     -0.027601
O	      8.14778      8.73512     10.50400        -0.120241      0.011216      0.129329
