# total energy = -233.75219236 eV
 
CRYSTAL
PRIMVEC
-0.035398 6.218515 6.367102 
6.444250 -0.011807 6.341966 
4.287705 4.121294 0.001432 
PRIMCOORD
36 1
Li	      4.25427      4.21035      0.17392         0.024395     -0.025253      0.030452
Li	      8.42444      2.12597      6.55439        -0.059076     -0.008111      0.028409
Li	      6.28261      4.19988      2.08402        -0.045964     -0.012296     -0.025307
Li	      4.14485      2.09943      2.09781        -0.051007      0.024808     -0.027793
Li	      6.34960      2.03517      4.45304         0.003047     -0.025015      0.007718
Li	      0.08380      1.98110      2.05290         0.006869      0.006837      0.019242
Li	      2.28605      4.08322      2.02544         0.054624      0.004103     -0.000593
Li	      4.39649      2.01714      6.29544         0.000576      0.015029     -0.005057
Li	      4.25235      6.19136      6.32612        -0.015858     -0.008039     -0.040839
Ti	      8.57416      6.42807     10.65565         0.067291      0.281438      0.101281
Ti	      6.32112      8.25203      6.34136        -0.294149      0.159961     -0.025538
Mn	      8.57905      4.09580      4.28530        -0.006381     -0.046594      0.042372
Mn	      2.13920      2.06000      4.09506        -0.008001      0.051256      0.002377
Mn	      4.34383      4.05907      4.09911        -0.039459      0.041603      0.123512
Mn	      6.39962      4.05680      6.35138        -0.023113      0.023823     -0.022228
Mn	      6.43326      6.20425      8.51042        -0.000186     -0.000808      0.003280
Cu	      6.44322      4.16354     10.58849        -0.063547     -0.093415      0.062847
Cu	      4.30549      4.14106      8.41899         0.030644      0.020917      0.008636
O	      2.12564      2.08520      2.24150         0.004561      0.001119     -0.062383
O	      4.28008      4.10270      2.22066         0.004094     -0.019332     -0.168042
O	      4.32148      1.89823      4.17970         0.068336     -0.006848     -0.004953
O	      6.31948      4.17278      4.13967         0.063483      0.011103     -0.038013
O	      6.38477      2.19578      6.43506        -0.004551     -0.061427      0.029354
O	      8.38459      4.12054      6.23734         0.015216      0.054435      0.021935
O	      2.34808      4.11508      4.30965         0.104264     -0.008626     -0.011661
O	      4.09251      6.32255      4.17903        -0.102543     -0.111930     -0.022292
O	      4.37009      4.10861      6.10250        -0.003352      0.028094     -0.057987
O	      6.39649      6.17814      6.14983         0.014387      0.022059      0.058730
O	      6.32139      4.25699      8.53733         0.065535     -0.021923     -0.054120
O	      8.39117      6.24930      8.64268        -0.026605     -0.155138      0.043118
O	      2.19308      6.06283      6.25313        -0.020203     -0.112178     -0.142903
O	      4.49123      8.23629      6.31752         0.303851     -0.026459      0.089695
O	      4.47409      6.11947      8.63919         0.048848      0.129658     -0.028060
O	      6.58797      8.15963      8.22844        -0.127250     -0.020811     -0.017736
O	      6.59241      6.13836     10.69317         0.068976      0.119152     -0.022477
O	      8.41243      8.26114     10.77173        -0.057751     -0.231190      0.105022
