# total energy = -93.32459910 eV
 
CRYSTAL
PRIMVEC
2.072951 4.158657 2.072998 
2.118622 -4.204159 2.118626 
4.196166 -0.000027 -4.196233 
PRIMCOORD
16 1
Li	      2.12560     -0.01870      2.10629        -0.012954     -0.052920      0.217299
Li	      2.17958     -2.08159     -0.00139         0.065684     -0.103551     -0.032044
Li	      4.25760     -0.02030     -0.02343         0.148379     -0.059518      0.032342
Li	      4.22668     -2.12044     -2.08268         0.043862     -0.018736      0.047255
Mn	      0.07191     -0.00050      0.00964        -1.387065      0.027909     -0.063324
Mn	      2.13938      2.05848     -0.00645        -0.060374      0.780057     -0.349897
Ni	      2.17528     -0.00031     -2.09353        -0.190502     -0.018889     -0.465337
Ni	      4.23255      2.05856     -2.09896        -0.311376      0.355191      0.089967
O	      6.50407     -0.02169      0.00074         0.183209     -0.077654      0.048387
O	      4.07335      2.07701     -0.02293        -0.259141     -0.294041      0.148770
O	      4.23059     -0.02320     -2.27351         0.243500     -0.093546      0.217877
O	      4.23737     -0.16468      2.22767         0.091072     -0.359773     -0.096034
O	      4.25348     -2.12183      0.15643        -0.000773      0.142140      0.490416
O	      2.10190      2.21973      1.98684         0.394784     -0.274415     -0.291349
O	      2.00271      0.11994     -0.00696         0.514492     -0.027008      0.198153
O	      2.24290     -2.26531      2.12858         0.537202      0.074755     -0.192480
