# total energy = -240.61111387 eV
 
CRYSTAL
PRIMVEC
0.020159 6.411999 6.369235 
6.227484 0.017569 6.370792 
4.160933 4.285385 0.002813 
PRIMCOORD
36 1
Li	      4.13032      2.15868      2.15720         0.012509      0.013395      0.008284
Li	      6.27695      2.19060      4.28328         0.076442      0.068188      0.004473
Li	     10.31092      6.44394      8.50563        -0.047137      0.009662     -0.032455
Li	      8.32440      4.42778      8.54576         0.013822      0.042532     -0.026627
Li	      4.06605      4.31638      4.29193        -0.049890     -0.065621      0.006121
Li	      8.32445      6.50874      6.47003         0.006610      0.016486     -0.003473
Li	      8.36938      6.39995     10.44916         0.025113     -0.017941      0.001250
Li	      2.20383      4.22879      6.32141        -0.007178     -0.011863     -0.038447
Li	      8.33522      8.47197      8.45709        -0.018457      0.007722      0.045533
Ti	      6.08616     10.55080      8.47057        -0.321336     -0.180941      0.036109
Ti	      4.22422      0.17300      4.26889         0.032081      0.152801      0.059109
Mn	      8.29333      2.16821      6.38725         0.028096     -0.004179     -0.019876
Mn	      2.04665      2.15350      4.15101         0.069965      0.064013      0.008140
Mn	      6.24631      4.23426     10.54572         0.057974      0.019692     -0.005350
Mn	      4.17888      6.33847      6.36127        -0.112400      0.051065     -0.028571
Mn	      6.31038      6.49023      8.49558         0.049425      0.006767      0.097987
Fe	      6.23397      0.07498      6.38845        -0.005771     -0.104688     -0.076246
Co	      6.19657      4.24331      6.54830         0.018995     -0.168169     -0.012147
O	      2.11878      1.92666      1.95616        -0.000255     -0.021802      0.010595
O	      4.22446      4.21108      2.11293         0.371333     -0.044247      0.073607
O	      4.02154      2.06883      4.27432         0.003557     -0.117648      0.004890
O	      6.34840      4.42141      4.09880        -0.044337     -0.075638     -0.091202
O	      6.33881      2.11066      6.35734         0.024204      0.330733      0.004569
O	      8.26314      4.34556      6.23345        -0.115193      0.033324      0.006434
O	      1.97133      4.08664      4.20901         0.012650     -0.004613      0.031490
O	      4.27097      6.35733      4.18593        -0.043941     -0.062835      0.077339
O	      4.22181      4.42532      6.35101         0.042414     -0.033105      0.040877
O	      6.12375      6.43167      6.47830         0.107433     -0.039071     -0.000090
O	      6.23664      4.30894      8.60608        -0.020877      0.014613     -0.015209
O	      8.16838      6.47250      8.49090         0.036183     -0.037423     -0.006724
O	      2.19320      6.31192      6.46985         0.109292     -0.011797      0.077625
O	      4.09457      8.47829      6.23293        -0.015341     -0.117180      0.007558
O	      4.28597      6.45176      8.66780        -0.110012      0.030496     -0.078235
O	      6.26244      8.71476      8.57111        -0.006704      0.210908     -0.045669
O	      6.18942      6.52714     10.59206        -0.107028      0.016101     -0.097519
O	      8.42445      8.73111     10.75713        -0.072240      0.030261     -0.024148
