# total energy = -237.15558464 eV
 
CRYSTAL
PRIMVEC
0.043705 6.204950 6.393093 
6.550767 0.025947 6.410802 
4.340943 4.122314 0.042806 
PRIMCOORD
36 1
Li	     10.74475      4.16860      6.35805        -0.047716      0.034775     -0.016309
Li	      8.73700      2.25918      6.28689         0.045410      0.038800     -0.032971
Li	      8.73605      4.12930      4.39332        -0.040782      0.002811      0.019278
Li	      6.67188      8.22986     10.81926         0.030625      0.067795      0.058131
Li	      8.62022      4.19472      8.39683        -0.071642      0.005815     -0.008448
Li	      4.36819      4.12746      4.30104         0.018546      0.014776     -0.040375
Li	      6.66237      4.08710      6.45838         0.020853     -0.050611      0.018867
Li	      6.54475      4.20916     10.65464         0.001456     -0.009065     -0.027178
Li	      6.58589      6.17608      8.71299         0.002934      0.033231      0.040631
Ti	      4.34438      2.17648      2.10631         0.063078      0.198406     -0.059767
Ti	      6.51855      6.07352      4.33317        -0.038764     -0.408956     -0.038903
Mn	      2.29683      6.21731      8.44607        -0.012502      0.078025      0.134962
Mn	      6.57328      2.07845      8.50297        -0.062729     -0.073319     -0.082454
Mn	      8.77325      6.14430      6.43350         0.101495     -0.031926      0.059378
Mn	      8.60518      6.23316     10.71521        -0.071788      0.009344     -0.106371
Mn	      2.18534      4.15155      6.36941        -0.034547     -0.093209     -0.040172
Fe	      4.57019      4.20525      8.57272        -0.071683     -0.023419      0.126551
Cu	      4.42993      6.16230      6.34672        -0.046498      0.007704      0.000445
O	      2.30746      2.14833      2.26513         0.096424      0.002520      0.032522
O	      4.40526      4.09987      2.16659         0.022690     -0.276846      0.012630
O	      4.17740      2.10330      4.13948        -0.054617     -0.004110     -0.022613
O	      6.49082      4.24533      4.30538         0.017820      0.441997     -0.000334
O	      6.40795      2.07618      6.56208        -0.018066     -0.054560     -0.112221
O	      8.70835      4.25875      6.39672         0.005329     -0.034405     -0.010302
O	      2.19660      4.20128      4.44784        -0.038083      0.033930      0.052094
O	      4.49011      6.19947      4.13230         0.126345     -0.020451      0.162681
O	      4.35650      4.01812      6.58139         0.060296      0.137864     -0.181689
O	      6.68467      6.27014      6.28228        -0.006430      0.037020     -0.055553
O	      6.49862      4.06249      8.53863         0.075153      0.125624      0.044672
O	      8.71494      6.24199      8.74076        -0.053290     -0.006894      0.001739
O	      2.20895      6.14730      6.27318         0.081709     -0.061028      0.006265
O	      4.31926      8.25833      6.62588        -0.034322     -0.118112      0.108166
O	      4.43447      6.20977      8.64962        -0.024327      0.028811     -0.040753
O	      6.42377      8.24051      8.40402        -0.078000      0.005699     -0.049291
O	      6.76639      6.22008     10.71169         0.041282     -0.009620      0.000471
O	      8.71604      8.14448     10.62811        -0.005660     -0.028419      0.046221
