# total energy = -242.55153212 eV
 
CRYSTAL
PRIMVEC
0.018747 6.270539 6.270575 
6.387471 -0.008467 6.298099 
4.256785 4.196903 -0.004187 
PRIMCOORD
36 1
Li	      6.38963      0.03716      6.28941        -0.023158      0.008446      0.023563
Li	      4.30630      8.30652      8.33984        -0.063581     -0.021310      0.051008
Li	      6.39954      8.28071     10.52422         0.038082     -0.029390     -0.005700
Li	      6.33904      6.26882      4.35135         0.001805     -0.076749     -0.095190
Li	      8.32435      6.30384      6.28552         0.035098     -0.061106      0.007801
Li	      6.40609      4.38670      6.28646         0.006633      0.035591     -0.042120
Li	      8.55561      6.29623     10.45567        -0.020774      0.040734     -0.020598
Li	      4.41989      6.26366      6.30077        -0.028590     -0.023405     -0.014979
Li	      6.34805      6.33921      8.21237        -0.014639      0.004812      0.115051
Ti	      4.31581      4.04395      4.27544         0.365196     -0.323339     -0.155173
Ti	      0.14261      4.26754      4.29237        -0.226461      0.419907     -0.138095
Mn	      2.12324      8.29507      6.24679        -0.134182      0.052235      0.057520
Mn	      6.36744     10.38072      8.33689         0.064847      0.027633      0.165092
Mn	      4.26535      0.08000      4.27071        -0.014389      0.070129     -0.009940
Mn	      6.40245      2.08532      8.33611         0.020325     -0.039779     -0.066240
Mn	      8.49995      4.26082      8.27107        -0.005028      0.017448     -0.069034
Mn	      4.28003      4.16115      8.34840        -0.015703      0.065535      0.060016
Co	      6.37396      8.32251      6.26938         0.013310     -0.438860     -0.012057
O	      2.05874      2.05086      1.96929        -0.033435     -0.027251      0.032790
O	      4.21561      4.13348      2.21105        -0.038468     -0.018346      0.070393
O	      4.27118      2.15170      4.18527        -0.043827      0.332770      0.017993
O	      6.24934      4.17286      4.04716        -0.250701     -0.000644      0.005462
O	      6.55461      2.07432      6.40262         0.071944     -0.000938     -0.021855
O	      8.49624      4.26272      6.20207         0.011227     -0.019135      0.068015
O	      2.11163      4.19533      4.17463        -0.152009      0.079321     -0.276498
O	      4.26405      6.29762      3.99933        -0.022676      0.038778      0.115942
O	      4.33625      4.24095      6.11805        -0.105481     -0.021368     -0.242092
O	      6.36384      6.40404      6.26751        -0.090604     -0.398628      0.005954
O	      6.32446      4.23082      8.51530         0.026111      0.035018      0.081614
O	      8.65228      6.38638      8.32335         0.013755      0.037099      0.017288
O	      2.10244      6.11519      6.44902         0.010321      0.460387      0.007454
O	      4.11448      8.28297      6.18545         0.144059      0.018277     -0.296776
O	      4.22869      6.16177      8.56224         0.045635      0.023413     -0.132672
O	      6.55393      8.34660      8.31047         0.139231      0.197459      0.634424
O	      6.43438      6.12066     10.53971         0.132394     -0.426659      0.023030
O	      8.62039      8.41698     10.57626         0.143732     -0.038086      0.038609
