# total energy = -239.17553237 eV
 
CRYSTAL
PRIMVEC
-0.010822 6.795624 6.166546 
6.077239 0.013960 6.141164 
4.063758 4.525061 -0.002489 
PRIMCOORD
36 1
Li	      4.09015      4.54979      0.08450        -0.044665      0.014091      0.032170
Li	      1.99643      8.89782      6.23303        -0.041325      0.020346      0.053694
Li	      1.97572      0.19620      1.90181        -0.039089      0.026701      0.039935
Li	      0.11203      2.28554      1.97241        -0.040291     -0.012506     -0.031199
Li	      2.05525      4.31785      1.94944        -0.003752      0.008272     -0.037021
Li	      1.99674      2.24659      4.03400        -0.017739     -0.030733      0.022672
Li	      6.08522      4.61931      6.26019         0.007412      0.025551     -0.046820
Li	      6.08534      9.03993      6.17439         0.010301      0.006689      0.059435
Li	      6.07726      6.76609      8.19100         0.039798      0.004363     -0.025144
Ti	      7.97718      4.51531      4.12170        -0.162222     -0.076003      0.169313
Ti	      0.17681      4.54570      4.11398         0.078097      0.032635      0.016281
Mn	      6.04290      2.23690      4.12891         0.089235      0.036801      0.026029
Mn	      4.00341      9.13012      8.08958        -0.040342     -0.011366     -0.069047
Mn	      4.07212      4.54260      4.07860        -0.010234     -0.040369      0.052931
Mn	      8.02512      6.74225      6.24764         0.102180     -0.005675     -0.020614
Mn	      2.04714      6.79928      4.12062        -0.000020      0.016928     -0.147949
Mn	      4.00822      4.57857      8.08593         0.002720     -0.012892     -0.098042
Cu	      4.11838      6.87469      6.22627         0.082036     -0.114341      0.034307
O	      2.13664      2.28498      1.99005         0.003452      0.013040      0.025754
O	      4.07011      4.46510      2.18835         0.000643      0.138462     -0.033549
O	      4.11146      2.06128      4.00875        -0.126998     -0.032069     -0.109011
O	      6.08394      4.54226      4.11320         0.185469     -0.065919     -0.025437
O	      5.94373      2.20476      6.03531         0.040096     -0.022961     -0.002980
O	      8.08292      4.75403      6.01467        -0.038966     -0.124512     -0.254293
O	      2.05044      4.54530      4.10695        -0.135208      0.049287      0.030384
O	      4.01894      7.00450      4.16686        -0.008302      0.060215      0.066717
O	      4.03141      4.23663      6.03609        -0.016771      0.013874     -0.120537
O	      6.09681      6.72206      6.16900        -0.165353      0.089573      0.080076
O	      6.06556      4.54328      8.39013         0.132074     -0.029290      0.177315
O	      8.11284      6.95093      8.34394         0.004535     -0.064866      0.024283
O	      2.15098      6.80859      6.04061        -0.029077      0.021089      0.076243
O	      4.07721      9.15945      6.06940         0.063133      0.069305     -0.062537
O	      4.02274      6.79674      8.29019         0.036006     -0.039449      0.059613
O	      5.98496      9.04101      8.33958        -0.024937     -0.029346     -0.041196
O	      6.07225      6.61918     10.27661         0.014255      0.001931      0.014695
O	      8.03201      9.29897     10.31147         0.053851      0.063141      0.063529
