# total energy = -243.37281459 eV
 
CRYSTAL
PRIMVEC
0.024706 6.550348 6.313165 
6.388165 0.011097 6.325948 
4.276849 4.395386 -0.010549 
PRIMCOORD
36 1
Li	      2.10229      4.42661      2.24472         0.007452      0.011219     -0.005099
Li	      2.10340      2.34020      4.30965         0.044780      0.081422      0.004382
Li	      4.11400      4.37399      4.35476        -0.038938     -0.026447      0.036499
Li	      8.42413      6.74230      6.36757        -0.005562      0.066219      0.011200
Li	      0.21807      4.33140      4.16746         0.046153      0.021961     -0.022754
Li	      2.27047      4.23502      6.21307         0.003026      0.003894     -0.010429
Li	      4.40498      6.45959      6.28742         0.021332     -0.006313     -0.014943
Li	      4.25366      4.36096      8.32274         0.040063     -0.003360      0.014108
Li	      6.40438      6.62510      8.27992        -0.092049      0.073344     -0.009548
Ti	      4.21550      4.36421      0.02629        -0.058338     -0.117872      0.059628
Ti	     10.63520      6.70698      8.54107        -0.158220      0.206491      0.251189
Mn	      2.17125      8.72983      6.30087         0.006124     -0.026162     -0.046424
Mn	      2.20855      6.52172      8.41159         0.026499     -0.037303      0.021593
Mn	      4.26650      2.19162      2.14970        -0.037686     -0.029243     -0.029314
Mn	      4.30670      6.51838     10.50545         0.015686     -0.045497      0.034540
Mn	      6.35302      2.18815      4.19251         0.009062     -0.021654      0.022483
Mn	      2.14030      6.45144      4.18185        -0.016432      0.000801     -0.025487
Fe	      6.23161      4.63332      6.30306         0.154313     -0.063945      0.021553
O	      2.16166      2.16670      2.12418         0.069205      0.027641      0.072874
O	      4.30288      4.55171      1.94339        -0.013719      0.116821     -0.220034
O	      4.40641      2.26055      4.07357        -0.080428     -0.005832      0.084055
O	      6.60153      4.32980      4.32530         0.019933      0.014277     -0.058896
O	      6.34085      2.03409      6.30805        -0.045780     -0.109661     -0.076759
O	      8.63464      4.37625      6.16585         0.146460     -0.005141     -0.018799
O	      2.15343      4.55248      4.20394         0.020644      0.036083      0.001136
O	      4.33668      6.66773      4.05205         0.032543      0.043104     -0.294574
O	      4.36253      4.40844      6.30747        -0.096327      0.010542      0.011465
O	      6.42879      6.50575      6.31683         0.030670      0.143895     -0.002221
O	      6.47300      4.16953      8.25937         0.053034     -0.333040      0.045664
O	      8.71390      6.55628      8.51841         0.226276      0.027747      0.013580
O	      1.99068      6.54737      6.17836        -0.137213     -0.021378     -0.008842
O	      4.29450      8.93622      6.50640         0.015385      0.179375      0.019360
O	      4.30526      6.55581      8.56925         0.014110     -0.056442      0.025050
O	      6.28741      8.76869      8.52321        -0.093282     -0.028005      0.053920
O	      6.28129      6.47774     10.64117        -0.080102     -0.083087      0.090102
O	      8.32392      8.54169     10.50156        -0.048674     -0.044452     -0.050259
