# total energy = -244.61561200 eV
 
CRYSTAL
PRIMVEC
-0.021979 6.446773 6.340902 
6.423200 -0.011579 6.329971 
4.275784 4.284700 -0.001138 
PRIMCOORD
36 1
Li	      2.15693      6.42907      8.36475         0.045907     -0.006119     -0.022287
Li	      4.35458      6.33874     10.45859        -0.029304      0.023827     -0.050880
Li	     10.39020      6.60347      8.56557         0.021518      0.032044      0.025001
Li	      8.39379      4.53089      8.59611        -0.061749      0.013096     -0.021967
Li	      8.53303      6.45741      6.66593        -0.007457     -0.009919      0.019303
Li	      6.37340      4.41103     10.40728        -0.015105      0.029186     -0.022110
Li	      8.48829      6.45494     10.40584         0.025944      0.011559      0.001893
Li	      8.70458      8.32051      8.58896         0.001484      0.002719     -0.005214
Li	      6.59133      6.30505      8.59036        -0.037414     -0.008024     -0.031333
Ti	     10.50148      4.36135      6.33332        -0.376907      0.072242      0.029781
Ti	      2.25281      4.29199      6.36231         0.154914     -0.147667      0.124626
Mn	      8.51769      8.55089     12.65275         0.067403      0.019419      0.044336
Mn	      6.39408      8.59294     10.51443        -0.047264      0.029990     -0.044094
Mn	      4.27198      8.54651      8.35123        -0.006386     -0.021140      0.002214
Mn	      2.16662      2.10587      4.07488        -0.009638     -0.013688      0.008848
Mn	      4.28452      4.26609      4.14438         0.049917     -0.002014     -0.040268
Mn	      6.44301      4.30315      6.56108        -0.004913      0.012510      0.002393
Mn	      4.26460      6.43398      6.31153         0.106161      0.035771     -0.009541
O	      2.32784      2.07058      1.96407        -0.005578     -0.024222     -0.065004
O	      4.33746      4.08435      1.92538         0.021585      0.037430     -0.154919
O	      4.36606      2.26010      4.17381         0.035693     -0.012988      0.009456
O	      6.27528      4.17720      4.27490         0.005425     -0.023498      0.010936
O	      6.47730      1.97907      6.44634        -0.010637     -0.184702     -0.004847
O	      8.64800      4.23729      6.31953         0.362968      0.044158     -0.011969
O	      2.34201      4.21694      4.31554        -0.039580      0.042735      0.071792
O	      4.34316      6.21414      4.32893        -0.051287     -0.013050      0.053417
O	      4.11945      4.25080      6.41455        -0.242864     -0.038518      0.010482
O	      6.24956      6.56836      6.25975         0.021541      0.147700      0.027550
O	      6.39718      4.28671      8.53227        -0.020391     -0.008740      0.052129
O	      8.51254      6.42246      8.51765         0.006081      0.017113      0.036793
O	      2.23281      6.34838      6.26675        -0.044649     -0.086048      0.020568
O	      4.35601      8.75853      6.12408        -0.002267      0.056686     -0.010525
O	      4.24810      6.63277      8.23737         0.000833     -0.014162     -0.014305
O	      6.25677      8.59706      8.26437         0.068074      0.020147     -0.164087
O	      6.35391      6.62811     10.70644         0.002531     -0.018076      0.144482
O	      8.34749      8.63780     10.70650         0.015410     -0.015757     -0.022651
