# total energy = -93.17058135 eV
 
CRYSTAL
PRIMVEC
2.083213 4.179245 2.083261 
2.129111 -4.224972 2.129115 
4.216939 -0.000027 -4.217007 
PRIMCOORD
16 1
Li	      2.16758     -0.01889      2.10632        -0.009966     -0.073845      0.317400
Li	      2.21153     -2.08156      0.00891         0.089896     -0.154318     -0.041511
Li	      4.29986     -0.02050     -0.02366         0.216890     -0.083459      0.049573
Li	      4.26863     -2.14149     -2.10335         0.069293     -0.030715      0.064405
Mn	      0.11435     -0.00073      0.00971        -2.088436      0.028365     -0.081123
Mn	      2.17115      2.05799      0.00402        -0.069062      1.139443     -0.499217
Ni	      2.21772     -0.00055     -2.09346        -0.263136     -0.030500     -0.696284
Ni	      4.28510      2.05808     -2.10926        -0.461014      0.514710      0.137335
O	      6.56862     -0.02191      0.00075         0.217107     -0.146097      0.115066
O	      4.11379      2.09763     -0.02316        -0.341821     -0.387075      0.174589
O	      4.27258     -0.02343     -2.29607         0.307053     -0.089249      0.344337
O	      4.27943     -0.16631      2.24978         0.166935     -0.488489     -0.158932
O	      4.29570     -2.14288      0.15799         0.035269      0.158036      0.673938
O	      2.12277      2.24176      2.00657         0.541148     -0.421774     -0.404814
O	      2.02260      0.12113     -0.00703         0.834197     -0.061721      0.250660
O	      2.26516     -2.28779      2.14971         0.755647      0.126688     -0.245423
