# total energy = -225.88223120 eV
 
CRYSTAL
PRIMVEC
-0.044111 6.880805 6.160055 
6.117941 0.047472 6.073732 
4.061111 4.510662 0.046743 
PRIMCOORD
36 1
Li	      6.05289      0.22425      6.15119         0.028528      0.070788     -0.133208
Li	      3.97439      0.31045      4.12869         0.057376      0.067287     -0.111881
Li	      5.98301      2.50803      4.20228        -0.070890     -0.037235     -0.082437
Li	      4.12363      6.62335      2.05027         0.000754     -0.058862      0.008159
Li	      2.11722      4.44869      1.98833        -0.125047     -0.000578      0.080234
Li	      6.08809      6.57348      4.08043         0.006872      0.008576     -0.013637
Li	      4.13695      4.31289      4.03213        -0.092731     -0.052110      0.113845
Li	      4.17453      2.12167      6.01846        -0.006425      0.021833     -0.016005
Li	      4.05057      6.83948      6.14359         0.018630      0.026792      0.038597
Ti	      2.16413      6.82484      4.15419         0.240697      0.035541     -0.032991
Ti	      2.02822      4.55962      6.07970         0.016580     -0.128555     -0.029963
Mn	      8.10653      2.47634      6.11660         0.101096     -0.081623     -0.017951
V	      8.05820      9.18040      8.23260         0.078286     -0.201066      0.041116
V	      6.00905      6.86392      8.21518        -0.015128      0.053513      0.028757
Co	      4.03433      2.49024      2.10269        -0.065210      0.171633     -0.086260
Cu	      6.07052      4.61366      2.18242         0.186447      0.046377     -0.115676
Cu	      6.14633      4.54059      6.05418        -0.172075     -0.007022      0.036846
Ni	      6.11191      4.62265     10.14102         0.018064      0.008955      0.060768
O	      6.06273      4.53899      4.13708         0.117643      0.016531      0.040991
O	      2.12566      2.36226      1.97282         0.300223      0.280055      0.049156
O	      4.16574      4.48700      2.08608        -0.087498     -0.879567     -0.014586
O	      4.02039      2.26343      3.90865        -0.020003      0.298404      0.038764
O	      6.25012      2.24207      6.12556        -0.062939     -0.136394      0.085052
O	      8.09483      4.58677      6.09202         0.043049      0.121351     -0.036463
O	      2.00802      4.79735      4.16270         0.200272      0.065568      0.125140
O	      3.98816      6.98871      4.08697        -0.268931     -0.154057      0.013023
O	      3.95198      4.60216      6.20993         0.013240      0.051108     -0.155408
O	      6.05407      7.12831      6.28539        -0.042218      0.120509      0.005626
O	      6.04300      4.87622      8.08047         0.148616     -0.040123     -0.098623
O	      8.03150      7.07635      8.26646         0.102683     -0.101913      0.079769
O	      2.00844      6.60406      6.08761        -0.020970     -0.058502     -0.032146
O	      4.01254      9.08184      6.25655         0.040141      0.142416     -0.030781
O	      4.02721      6.64391      8.21465        -0.189184      0.164235      0.029556
O	      5.97498      8.91677      8.17548        -0.312173      0.139008     -0.010269
O	      6.14532      6.75950     10.05124        -0.025498      0.074773      0.058121
O	      8.13551      8.91288     10.27240        -0.142275     -0.047644      0.084765
