# total energy = -227.16697453 eV
 
CRYSTAL
PRIMVEC
0.006138 6.466382 6.355636 
6.178292 0.010279 6.352805 
4.113682 4.303841 0.012075 
PRIMCOORD
36 1
Li	      8.16454      2.19572      6.39516        -0.026526      0.003746      0.026296
Li	      2.15087      6.54166      8.38048         0.011536      0.006734     -0.008901
Li	      4.14699      6.62709     10.45540         0.020146      0.063310     -0.020009
Li	      4.09649      6.37563      2.19245         0.019934     -0.005952      0.043068
Li	      6.26065      6.45078      4.37122        -0.003739      0.005686     -0.054174
Li	      4.08684      4.33045      4.42955         0.001309      0.017395     -0.070124
Li	      4.08690      2.26084      6.36585         0.058925     -0.046933      0.007385
Li	      2.21047      4.21250      6.36446        -0.090969      0.076225      0.041641
Li	      4.17159      6.30870      6.44250        -0.026117      0.081671     -0.028876
Ti	      6.22861      6.57108     12.60942         0.222153      0.120954     -0.214378
Ti	      4.10029      8.34105      4.35592         0.058244     -0.457604      0.109440
Mn	      4.15565      8.64712      8.41577        -0.256054      0.014265     -0.228218
V	      6.17723      2.44508      4.17545        -0.162331     -0.050810     -0.001399
V	      8.15992      4.20904      8.42753         0.013260     -0.102801      0.050096
Co	      2.04203      6.38083      4.27438        -0.128537      0.048740      0.059317
Cu	      6.16598      4.48102      6.33595         0.027103     -0.088993     -0.203413
Cu	      4.15230      4.32325      8.41425        -0.021040     -0.027886      0.004620
Cu	      6.15885      6.48452      8.38910        -0.046937      0.004053      0.036545
O	      6.21771      6.43636      6.44754         0.113403      0.133861     -0.012185
O	      2.04869      2.34071      2.13161        -0.038168      0.000914      0.018313
O	      4.01439      4.20261      1.93959        -0.024159      0.041906     -0.123873
O	      4.26892      2.22511      4.09254         0.214801      0.072217      0.201805
O	      6.23295      4.19795      4.18272         0.024316     -0.016776     -0.045404
O	      6.14560      2.02563      6.16625         0.013729     -0.294628      0.016449
O	      8.18063      4.30171      6.49225         0.052679      0.007391     -0.090032
O	      1.91509      4.24921      4.20567         0.021247      0.209905      0.077208
O	      4.10886      6.49807      4.35437         0.183290      0.506055      0.079219
O	      4.23409      4.31198      6.47854        -0.020066     -0.058700      0.125488
O	      6.16004      4.13545      8.71469        -0.157869     -0.102967      0.123779
O	      8.17415      6.11503      8.57701         0.006051      0.036526      0.196803
O	      1.90529      6.49986      6.34290        -0.093825     -0.082698     -0.125649
O	      4.06011      8.77547      6.26250         0.003387      0.036127     -0.262445
O	      4.19639      6.77865      8.41861         0.026213      0.004492     -0.020813
O	      6.28136      8.75087      8.57953         0.142812      0.116093      0.128999
O	      6.11726      6.46019     10.63975        -0.233794     -0.059322      0.137584
O	      8.22387      8.56842     10.48589         0.095594     -0.212194      0.025837
