# total energy = -227.03427075 eV
 
CRYSTAL
PRIMVEC
0.018860 6.254640 6.347258 
6.170176 0.034027 6.331699 
4.125056 4.171146 0.010958 
PRIMCOORD
36 1
Li	      3.98307      4.09483      0.08336        -0.031273      0.016366     -0.034113
Li	      8.40009      8.49893     12.64096         0.001902      0.059967     -0.017523
Li	      2.05529      0.04553      2.10438         0.081342      0.017937      0.074277
Li	      4.12698      8.28838      8.40746        -0.019580     -0.045545      0.018914
Li	      8.29924     10.37627     10.63754         0.033758     -0.044005     -0.056266
Li	      4.11687      4.20833      4.18739         0.005865     -0.026686     -0.040901
Li	      8.22644      6.15987      6.31793         0.040556     -0.013009     -0.062152
Li	      4.12965      8.34108      4.29821         0.009156      0.042661      0.002064
Li	      4.15933      4.29739      8.44939         0.023899      0.047102      0.052484
Ti	      2.19483      1.99754      4.18871         0.345698     -0.099552     -0.204686
Ti	      6.21179      8.37466      6.48342        -0.090873     -0.119814     -0.049879
Mn	      6.17237      2.11908      8.40075         0.083973     -0.044144     -0.039304
V	      2.10596      6.26293      4.26783        -0.248154      0.090893     -0.039292
V	      6.15163      2.09458      4.24769         0.097936      0.028574      0.129375
Co	      6.10758      6.22558      8.47925        -0.094413     -0.043766      0.130055
Ni	      8.28248      4.18660      8.34941         0.014894     -0.009756      0.038479
Ni	      6.17294      4.18912      6.34235        -0.048621     -0.011557     -0.047016
Ni	      4.12008      6.28279      6.42702        -0.003319      0.008504      0.023458
O	      1.99492      2.11079      2.26345        -0.104582     -0.099807      0.206888
O	      4.12115      4.37277      2.07861         0.111694      0.088907     -0.002023
O	      4.06863      2.11842      4.16284        -0.385955     -0.034681     -0.016485
O	      6.17704      4.25335      4.23679         0.009265      0.219913     -0.097786
O	      6.09361      2.16212      6.05979         0.009745     -0.121331     -0.110450
O	      8.17258      4.17241      6.34877         0.090806      0.046630     -0.078132
O	      2.07071      4.20878      4.33353         0.036730     -0.372273      0.137518
O	      4.10889      6.29257      4.29942         0.161799     -0.016985     -0.071803
O	      4.02912      4.18876      6.38068        -0.308979     -0.025112      0.042352
O	      6.20764      6.34419      6.21230         0.030564      0.155553     -0.063822
O	      6.20701      4.11136      8.40121        -0.093677      0.016287      0.087601
O	      8.27698      6.24676      8.62816        -0.012877      0.086348      0.341756
O	      2.07542      6.16550      6.21566        -0.143005     -0.028750     -0.274178
O	      4.29327      8.33378      6.38945         0.242886      0.064676      0.062866
O	      4.18467      6.25949      8.42093         0.103487      0.033736      0.073376
O	      6.19359      8.37564      8.52387         0.020362     -0.087691     -0.140348
O	      6.27666      6.39234     10.56589         0.143375      0.029268      0.012751
O	      8.14766      8.20968     10.58956        -0.114384      0.191143      0.011946
