# total energy = -228.66131786 eV
 
CRYSTAL
PRIMVEC
-0.010420 6.097198 6.419966 
6.312643 0.020722 6.389476 
4.240327 4.077068 -0.019170 
PRIMCOORD
36 1
Li	      4.19672      4.06229      0.13685         0.056804     -0.042830     -0.114518
Li	      6.16348      4.03035      2.20313         0.081557     -0.038946      0.006756
Li	      6.29545      2.09169      4.26452         0.007158      0.005353      0.013546
Li	      4.26805      5.95747      2.04850        -0.059126      0.066055      0.009298
Li	      2.28869      4.06694      2.08047        -0.080117      0.001242      0.031687
Li	      4.26127      4.04857      4.06238         0.011581     -0.003197      0.023095
Li	      0.00712      4.06067      4.27879        -0.015164      0.033915     -0.042380
Li	      6.28662      8.14288      6.41567        -0.002755      0.037176     -0.018883
Li	      4.19472      4.10183      8.52825         0.024385     -0.020632      0.048956
Ti	      8.42761      6.18276     10.58780        -0.005221      0.326798      0.007761
Ti	      4.14035      6.12950      6.41930        -0.259778     -0.038994     -0.216459
Mn	      6.33174      4.04797      6.40592        -0.074868      0.154004     -0.029169
V	      2.13391      2.11132      4.13023        -0.141121     -0.256726     -0.714343
V	      6.35318      6.13201      8.60219         0.089906      0.033190      0.088876
Co	      2.10931      2.04025      0.10317        -0.041904     -0.067810     -0.426136
Co	      8.43495     10.15202     10.64493        -0.022448     -0.057979      0.064238
Cu	      4.26501      2.13769      2.08853        -0.058963     -0.107531     -0.029952
Ni	      4.25675      2.08508      6.40523        -0.142554      0.004930      0.154926
O	      2.11642      2.05678      2.22077         0.311535      0.075191      1.059877
O	      4.24973      4.01708      2.06675        -0.024403      0.030502      0.042236
O	      4.08937      2.04346      4.35490        -0.341444      0.018198     -0.156636
O	      6.32620      4.29224      4.23332         0.143449     -0.384897      0.071408
O	      6.30120      2.16205      6.39645         0.441727     -0.218257      0.098705
O	      8.32266      4.10858      6.33314         0.058720     -0.525343      0.008293
O	      2.06871      3.95615      4.30452         0.073640      0.674466      0.026633
O	      4.14928      6.07307      4.37039        -0.019265      0.024991      0.051781
O	      4.33803      4.13706      6.46927         0.021434      0.095478      0.003296
O	      6.28082      6.06012      6.40191        -0.065333      0.011853     -0.011101
O	      6.30061      4.31580      8.53167         0.014383     -0.144243     -0.000140
O	      8.40282      6.12388      8.65889         0.003960     -0.020500      0.086160
O	      2.20986      6.04385      6.26280         0.260456      0.435875      0.169279
O	      4.20083      7.99483      6.33229        -0.400602      0.074000     -0.061930
O	      4.29264      6.18418      8.45688        -0.059583      0.057729      0.027623
O	      6.35625      7.97882      8.50722         0.110969      0.120028     -0.083635
O	      6.43510      6.11347     10.58728         0.076043      0.019636     -0.009276
O	      8.42614      8.06976     10.70213         0.026940     -0.372725     -0.179870
