# total energy = -228.30773192 eV
 
CRYSTAL
PRIMVEC
-0.011398 6.342877 6.333985 
6.250749 0.019634 6.302460 
4.181184 4.221040 -0.000824 
PRIMCOORD
36 1
Li	      4.20258      4.25567      0.09848        -0.060397      0.045524      0.052886
Li	      6.19843      4.26903      2.23031        -0.069905      0.066588      0.041776
Li	      8.22895      4.27472      4.31891         0.047983      0.036545      0.071989
Li	      6.28154      2.33374      4.25893         0.043940      0.021087      0.037136
Li	      4.23429      6.25160      2.10833         0.076670      0.012677     -0.057542
Li	      2.21556      4.13883      2.07119        -0.000207     -0.085371     -0.001827
Li	      4.37744      4.18243      4.08103         0.036854     -0.020954     -0.073480
Li	      6.31806      4.23643      6.16440         0.097067     -0.022866      0.014291
Li	      6.24766      6.35316      8.38422         0.040971     -0.035226      0.010377
Ti	      4.33670      2.03373      6.26603         0.404842     -0.746774     -0.149357
Ti	      6.20353      4.40089     10.49525         0.094688      0.640009     -0.376580
Mn	      4.18790      2.16216      2.16286        -0.144924      0.096073      0.043978
V	      4.14605      6.29372      6.26552        -0.046505      0.081431      0.004396
V	      8.24491      8.46732      8.42456         0.025851     -0.070587      0.227648
Co	      6.29175      6.23785      4.16315        -0.095618     -0.085931     -0.002615
Co	      8.29365      6.31849     10.45994        -0.182350      0.002803     -0.148357
Cu	      8.20753      2.16665      6.37652        -0.178714      0.091641     -0.084029
Cu	      2.08841      4.19920      6.27137        -0.108889     -0.087948      0.074543
O	      2.19440      2.10557      2.07446         0.185531      0.053550      0.375881
O	      4.19906      4.01809      2.09768         0.046583      0.019871     -0.006737
O	      4.22609      2.17537      4.36686        -0.014429     -0.034186      0.117076
O	      6.30704      4.31449      4.20064         0.067277      0.463135      0.015940
O	      6.22643      2.12068      6.36367        -0.661122      0.008135     -0.045258
O	      8.31793      4.45063      6.38545         0.049786      0.611720     -0.042836
O	      1.88468      4.15683      4.20469        -0.154994     -0.175960     -0.055958
O	      4.13673      6.35005      4.36486        -0.027492     -0.008637      0.236868
O	      4.30252      4.29526      6.46760         0.045238      0.414943     -0.109537
O	      6.21573      6.47557      6.28588        -0.597351     -0.309293     -0.074563
O	      6.00251      4.26027      8.58642        -0.002474      0.050011      0.295068
O	      8.30521      6.51917      8.32732        -0.031065      0.041882      0.070693
O	      2.19803      6.12064      6.22755         0.843623      0.309860      0.092676
O	      3.92650      8.30265      6.22134         0.039221     -0.553171      0.008620
O	      4.19618      6.40447      8.20535        -0.061632     -0.105824     -0.344597
O	      6.36109      8.47965      8.42828         0.042087      0.011016     -0.095892
O	      6.22263      6.23505     10.56728         0.095676     -0.626524     -0.036391
O	      8.34789      8.44676     10.46164         0.154179     -0.109251     -0.086287
