# total energy = -230.15871062 eV
 
CRYSTAL
PRIMVEC
0.006733 6.309895 6.234769 
6.271543 0.018604 6.222994 
4.205502 4.223347 -0.012131 
PRIMCOORD
36 1
Li	      4.14727      2.12578      2.12660        -0.052502      0.053887     -0.006781
Li	      4.35596      6.35734     10.34233        -0.060889      0.035158     -0.014193
Li	      6.25983      8.28216     10.35799        -0.014924      0.062405     -0.002397
Li	      8.29064      4.19906      8.32819        -0.038501     -0.059051     -0.024727
Li	      2.09008      2.14373      4.10458         0.014621     -0.028506     -0.030549
Li	      6.30331      4.21844      6.28770         0.029211      0.012345      0.031385
Li	      6.30034      4.38461     10.29758         0.013363      0.022063      0.027752
Li	      8.25369      6.29698     10.32648         0.046429     -0.001609      0.010242
Li	      6.31038      6.26399      8.49281        -0.012595     -0.049036     -0.096441
Ti	      8.46157      6.21051      6.21416         0.179312     -0.402106     -0.190183
Ti	      6.17159      8.37508      6.20264        -0.265378     -0.099577     -0.073742
Mn	      4.16465      4.23591      4.11970         0.152867     -0.092091     -0.046312
V	      6.31149      4.27137      2.13347         0.017879      0.158097      0.099348
V	      8.45295      8.43350      8.47108         0.140997      0.038356      0.136311
Co	      6.26292      6.34488     12.33479         0.034252      0.125975      0.251939
Co	      4.25896      6.29289      6.17471         0.030464      0.039848     -0.001178
Ni	      8.36147      8.48608     12.38157        -0.011644      0.064120     -0.052040
Ni	      0.04031      2.13935      2.10834         0.020905     -0.061621      0.065526
O	      2.10666      2.01196      1.96593         0.143129      0.047771      0.038162
O	      4.32274      4.25897      1.96644        -0.196509     -0.087230     -0.399156
O	      4.17611      2.27267      4.29577         0.009363     -0.008906      0.135661
O	      6.20304      4.24024      3.94983        -0.148438     -0.002071     -0.042034
O	      6.21369      2.15948      6.22787        -0.152797     -0.097493     -0.152005
O	      8.31554      4.32820      6.20355         0.085725      0.233771     -0.059860
O	      2.20475      4.23108      4.29465        -0.019579     -0.010884      0.151052
O	      4.22695      6.14522      4.16787        -0.000176     -0.010560      0.107277
O	      4.10473      4.14729      6.38259        -0.017549      0.026323     -0.011495
O	      6.37287      6.45049      6.25974         0.064122      0.249968      0.016086
O	      6.15299      4.19513      8.32093        -0.048577      0.162877      0.006715
O	      8.42334      6.43671      8.19661        -0.133722     -0.000212     -0.034583
O	      2.15400      6.26372      6.33766        -0.124084     -0.124866     -0.063544
O	      4.26914      8.40485      6.19278         0.218429      0.007401     -0.067306
O	      4.10459      6.22692      8.28078         0.084370     -0.086455     -0.021752
O	      6.36682      8.55237      8.19355         0.028435     -0.083157     -0.089911
O	      6.28497      6.34309     10.40137        -0.014956     -0.024757      0.479361
O	      8.35479      8.43861     10.26555        -0.001052     -0.010175     -0.076626
