# total energy = -232.19663933 eV
 
CRYSTAL
PRIMVEC
-0.026997 6.357127 6.322404 
6.181296 0.026292 6.267959 
4.141365 4.222677 -0.002941 
PRIMCOORD
36 1
Li	      6.22035      4.24185      2.16586         0.008914     -0.001278      0.108885
Li	     10.16501      6.36236      8.43675         0.053141      0.027439     -0.031555
Li	      8.25606      4.40992      8.43949        -0.025822     -0.050744     -0.036750
Li	      6.15735      6.36309      4.22058        -0.030989     -0.017673     -0.017356
Li	      3.98860      4.35624      4.20272        -0.024759      0.035978      0.016236
Li	      8.28699      6.29255     10.27714        -0.017064      0.021995     -0.049079
Li	      2.10299      4.18298      6.27376        -0.023681     -0.016776     -0.024186
Li	      8.23693      8.34115      8.35188        -0.022178      0.048138     -0.038307
Li	      6.26588      6.37321      8.33835        -0.086350      0.007646     -0.033172
Ti	      0.11145      6.36187      6.42822         0.201016      0.062930      0.228360
Ti	      6.27718      4.18734     10.25362         0.327272     -0.223611     -0.399510
Mn	      4.12039      6.26756      6.30939        -0.080018      0.002647      0.006283
V	      4.05765      2.06789      2.17024        -0.019131      0.000350      0.091138
V	      6.18867      8.50415     10.42815         0.079910      0.210745      0.086367
Co	      8.12543      6.44593      6.38942         0.041250     -0.034214     -0.026460
Co	      8.24589     10.58630     10.49814        -0.164007     -0.029454     -0.055305
Co	      6.17752      4.24656      6.34706         0.061917     -0.059964     -0.076086
Ni	      2.09805      2.13790      0.00158        -0.043576     -0.018046      0.048035
O	      2.25076      2.14557      2.04969         0.036640     -0.004248      0.111273
O	      4.14043      4.16467      1.97552         0.042281      0.013260     -0.266361
O	      4.12039      1.98742      4.16903         0.018193     -0.058074      0.003248
O	      6.33181      4.09992      4.24314         0.140885     -0.012139     -0.190595
O	      6.21802      1.99677      6.19741        -0.076830      0.011640      0.056257
O	      8.35123      4.23452      6.13044        -0.131614      0.115542     -0.029743
O	      1.92193      4.27764      4.20154        -0.337339     -0.002409     -0.040833
O	      4.09240      6.50932      4.20190        -0.025536      0.214749      0.002818
O	      4.11514      4.26943      6.26397         0.111137      0.017804      0.045767
O	      6.06357      6.31100      6.31064        -0.081521     -0.148024      0.005381
O	      6.19453      4.23516      8.43737        -0.043370      0.024542      0.579034
O	      8.21815      6.38518      8.29464         0.000972     -0.035276     -0.078120
O	      2.02305      6.39833      6.31551        -0.134485     -0.109578      0.056592
O	      4.13233      8.52411      6.37571         0.140210      0.080446      0.009817
O	      4.08509      6.48912      8.52594         0.041393      0.004507      0.037284
O	      5.99339      8.49334      8.49810         0.006483     -0.036417     -0.086656
O	      6.08235      6.37167     10.59787         0.006441     -0.074235      0.036733
O	      8.29833      8.64802     10.51637         0.050215      0.031802     -0.049433
