# total energy = -234.81255065 eV
 
CRYSTAL
PRIMVEC
-0.020662 6.361482 6.263702 
6.198106 0.034822 6.208000 
4.149550 4.221492 0.006102 
PRIMCOORD
36 1
Li	      8.31521      2.20469      6.19848         0.004892      0.006407      0.062712
Li	      8.28520      4.24862      4.24382        -0.023173      0.067292      0.053835
Li	      6.14738      6.34071      4.19823        -0.049675     -0.004998     -0.012744
Li	      4.22063      4.22102      4.15439         0.057958     -0.075062      0.028664
Li	      8.23680      6.28559      6.18060         0.007553     -0.033279     -0.003742
Li	      6.23734      4.30002      6.15180         0.014318      0.021923     -0.011570
Li	      2.11787      6.41389      4.20203        -0.012077     -0.038924      0.009008
Li	      4.11297      6.39295      6.09080        -0.047622     -0.001797     -0.023966
Li	      8.26905      8.44544      8.37834        -0.022940     -0.017083     -0.031664
Ti	      6.27417      2.19090      4.31931        -0.175868      0.141270      0.491659
Ti	      6.12475      6.30216      8.29246        -0.020965     -0.236514     -0.168084
Mn	      2.08072      4.17646      2.09909        -0.010610      0.016835     -0.047480
V	      2.10889      6.38410      8.32221         0.068213      0.061494     -0.006411
V	      2.17763      4.23343      6.15938         0.288573      0.033017     -0.111323
Co	      4.13661      2.11551      2.13365        -0.129619      0.074687     -0.013911
Co	     10.26898      6.40158      8.35917        -0.008686     -0.048044     -0.129097
Co	     10.30590      4.24556      6.19996         0.002457      0.007686      0.075079
Co	     10.25722      8.50224     10.40299         0.004259     -0.165817      0.026938
O	      2.04113      2.15713      2.09269         0.135442      0.054082      0.050910
O	      4.26513      4.20984      2.13968         0.004504      0.022354     -0.032650
O	      4.35406      2.11583      4.13224         0.273340     -0.036287      0.032816
O	      6.26953      4.12203      4.09822        -0.021377     -0.192292     -0.001967
O	      6.21711      2.13406      6.19253         0.031659     -0.014071     -0.497413
O	      8.29799      4.23237      6.39938         0.014630      0.045740     -0.028243
O	      1.88860      4.22784      4.15104        -0.088391      0.028671      0.006618
O	      4.08564      6.58322      4.10473        -0.056316      0.057572      0.065536
O	      3.93957      4.25827      6.12779        -0.218942     -0.009761      0.043496
O	      6.16032      6.44698      6.34904        -0.002468      0.018075      0.136669
O	      6.06266      4.37716      8.40260         0.035805      0.151372     -0.005532
O	      8.15451      6.21137      8.29383        -0.165604      0.059531      0.012524
O	      2.02891      6.22697      6.32999         0.007994      0.044929      0.032774
O	      4.25436      8.51035      6.13768         0.051918      0.004209      0.036144
O	      4.14444      6.41382      8.28929         0.139106     -0.036189      0.009079
O	      6.25344      8.42642      8.25104        -0.018436     -0.013405      0.058269
O	      6.17305      6.42674     10.27767        -0.013981      0.000787     -0.079611
O	      8.23143      8.50066     10.44016        -0.055874      0.005591     -0.027323
