# total energy = -224.58101491 eV
 
CRYSTAL
PRIMVEC
0.014138 6.500843 6.184735 
6.098249 0.013384 6.185787 
4.083998 4.352753 -0.009688 
PRIMCOORD
36 1
Li	      8.18839      8.71915     12.30858         0.019009     -0.014990      0.002454
Li	      4.05157      2.22376      2.10915        -0.052924     -0.024181      0.025306
Li	      8.19322     10.82495     10.31812         0.014166      0.011760     -0.014975
Li	      6.02418      6.54216      4.06342         0.080147      0.038396      0.012184
Li	      4.08097      4.55524      4.08324        -0.049755     -0.042922      0.055200
Li	      8.15391      6.54015      6.24389         0.046372      0.019987     -0.087874
Li	      3.94649      8.42731      4.10119         0.052562     -0.044796      0.052254
Li	      8.24746      6.59156     10.24102        -0.022336     -0.020678      0.021321
Li	      4.05127      6.51261      5.93451        -0.008397     -0.019838      0.012865
Ti	      2.19649      6.58164      8.26295         0.225458      0.310157      0.019551
Ti	      5.99490      8.52272      6.02474        -0.224272     -0.060501     -0.405829
Mn	     10.11365      4.30945      6.17033        -0.024731      0.002664     -0.013245
V	      6.05378      2.16583      4.15453        -0.079435      0.087059      0.067892
V	      6.09068      4.39556      6.15589         0.098205      0.069623     -0.141874
Cu	      2.06467      4.39546      2.17548         0.005055      0.004849      0.074739
Ni	      4.05216      6.50236      2.11370         0.083351      0.035599     -0.094056
Ni	      8.18758      8.66727      8.30350         0.023375      0.072596     -0.045510
Ni	      6.13177      6.52937      8.30603        -0.078368      0.019847      0.033146
O	      2.05803      1.89978      2.01442         0.062003     -0.371885      0.028743
O	      4.05850      4.35859      1.94255         0.117828     -0.061434     -0.079018
O	      4.27260      2.20577      4.11056         0.024328     -0.025674     -0.020661
O	      6.14022      4.26725      4.11466        -0.023827      0.016375     -0.130003
O	      6.13396      2.40631      6.14970         0.019910     -0.035947     -0.020357
O	      8.08537      4.39966      6.26491        -0.016865      0.024388     -0.096985
O	      2.08626      4.27257      4.21370        -0.053095     -0.028782      0.430756
O	      4.08414      6.49859      4.05107        -0.004775      0.014147      0.205801
O	      4.26392      4.41826      6.21168        -0.120330      0.000887     -0.063407
O	      6.13907      6.57194      6.20808         0.005845      0.101548     -0.075060
O	      6.19135      4.41481      8.18049        -0.051645     -0.021460      0.020238
O	      8.12740      6.67159      8.23257         0.038733     -0.046580     -0.025311
O	      1.94315      6.28048      6.30724         0.026364     -0.053407      0.083578
O	      4.16768      8.63863      6.13874         0.257406     -0.024906      0.016904
O	      4.04586      6.42808      8.26755        -0.378709      0.065090      0.021355
O	      6.12565      8.70802      8.22582        -0.066969      0.034501     -0.032154
O	      6.09439      6.68005     10.44519         0.040120     -0.057022      0.064963
O	      7.98824      8.71334     10.31188         0.016197      0.025531      0.097067
