# total energy = -92.95585826 eV
 
CRYSTAL
PRIMVEC
2.093475 4.199832 2.093523 
2.139599 -4.245784 2.139603 
4.237712 -0.000027 -4.237780 
PRIMCOORD
16 1
Li	      2.20986     -0.01908      2.10625        -0.009654     -0.096608      0.412384
Li	      2.24368     -2.08143      0.01931         0.109736     -0.201159     -0.051468
Li	      4.34233     -0.02070     -0.02390         0.283199     -0.105681      0.066168
Li	      4.31079     -2.16264     -2.12413         0.094127     -0.044748      0.080102
Mn	      0.15721     -0.00097      0.00978        -2.800406      0.023377     -0.100715
Mn	      2.20313      2.05741      0.01461        -0.069285      1.485253     -0.630409
Ni	      2.26048     -0.00078     -2.09328        -0.322317     -0.037800     -0.907396
Ni	      4.33796      2.05749     -2.11955        -0.595238      0.655121      0.175300
O	      6.63350     -0.02212      0.00076         0.232733     -0.199915      0.169060
O	      4.15441      2.11835     -0.02339        -0.416645     -0.477196      0.192335
O	      4.31478     -0.02365     -2.31875         0.368356     -0.082301      0.479869
O	      4.32170     -0.16796      2.27200         0.240102     -0.601457     -0.213365
O	      4.33812     -2.16405      0.15954         0.066455      0.167725      0.834573
O	      2.14373      2.26390      2.02639         0.681214     -0.559778     -0.508341
O	      2.04257      0.12232     -0.00710         1.182795     -0.099723      0.297902
O	      2.28754     -2.31039      2.17094         0.954829      0.174889     -0.296000
