# total energy = -224.62728192 eV
 
CRYSTAL
PRIMVEC
0.018417 6.149114 6.477951 
6.219848 0.014231 6.482367 
4.173446 4.130396 -0.017362 
PRIMCOORD
36 1
Li	      2.14193      8.22114      6.44762         0.018969     -0.007339      0.051214
Li	      4.23155      6.13784     10.79833         0.030951      0.002034     -0.039090
Li	      4.15963      6.19892      2.20650        -0.034669      0.026710      0.106904
Li	      6.22393      6.21328      4.46309        -0.033576     -0.025946      0.011246
Li	      8.20863      6.15895      6.48400         0.035374     -0.015459      0.030394
Li	      4.16512      8.21045      4.31762        -0.002450      0.025346     -0.017926
Li	      6.19869      8.08026      6.45893         0.006732      0.018595      0.028714
Li	      4.31788      6.21654      6.43226        -0.054846     -0.000819     -0.016703
Li	      6.22053      6.17787      8.48306         0.017567     -0.040997     -0.062578
Ti	      2.15083      6.26132      8.55233         0.175793      0.046158     -0.352882
Ti	      8.16882      4.26248      8.60692        -0.349260      0.366115     -0.061655
Mn	      4.23575      8.22090      8.59457        -0.040860     -0.159328     -0.037390
V	      6.31711      8.16633     10.81331         0.262218      0.030512     -0.098987
V	      4.15460      4.20490      4.44914         0.072937      0.261069      0.113562
Cu	     10.34616      4.12345      6.44122        -0.052728      0.106277     -0.006041
Cu	      6.29115      4.17199      6.43610        -0.040807     -0.239854      0.045443
Cu	      2.09001      6.16282      4.36442        -0.094188      0.124930      0.059873
Ni	      4.22103      4.04723      8.59187         0.050120     -0.049042     -0.133238
O	      2.11815      2.04903      2.21150         0.030727     -0.023369      0.068733
O	      4.16372      4.15570      2.40240         0.023795      0.151930      0.136032
O	      4.33266      2.11235      4.11482        -0.018766     -0.084732     -0.039914
O	      6.15697      4.07248      4.14724        -0.034256      0.022717     -0.178892
O	      6.20726      2.10796      6.22210         0.165865      0.051020      0.151436
O	      8.36070      4.09201      6.66222        -0.018487     -0.012359     -0.064003
O	      2.18308      4.13573      4.18329        -0.066974     -0.239124      0.008450
O	      4.04663      6.09871      4.38840         0.174779     -0.041806      0.054108
O	      4.18079      4.07552      6.28386        -0.070375     -0.063289      0.013427
O	      6.25761      6.07596      6.43925         0.013407      0.262520     -0.051830
O	      6.31383      4.08783      8.72524         0.381907     -0.017957      0.129327
O	      8.33779      6.12003      8.51965         0.001932     -0.397292     -0.082520
O	      1.94469      6.17532      6.71495         0.110476      0.052111      0.391156
O	      4.18446      8.30523      6.71103         0.027013     -0.233120     -0.143240
O	      4.04202      6.10081      8.62449        -0.116954      0.139299     -0.002021
O	      6.28972      8.30826      8.69905        -0.239969     -0.068970     -0.037719
O	      6.30659      6.24675     10.75685        -0.246751     -0.083638     -0.167424
O	      8.21793      8.21061     10.67307        -0.084646      0.117100      0.194032
