# total energy = -230.72132346 eV
 
CRYSTAL
PRIMVEC
-0.020681 6.293718 6.283704 
6.211707 -0.000272 6.262898 
4.132751 4.173952 0.008503 
PRIMCOORD
36 1
Li	      8.25905      2.15647      6.22766         0.000465      0.034263      0.004306
Li	      4.10854      2.10161      2.22495        -0.022904      0.023091      0.079385
Li	      4.14817      6.27963     10.40841         0.024484      0.049096     -0.010764
Li	     10.28638      6.34380      8.48184         0.075928     -0.023946      0.037028
Li	      2.03281      2.17523      4.18267        -0.047632      0.034795      0.011553
Li	      4.11634      4.14851      4.12951        -0.032306     -0.024849      0.040016
Li	      8.31916      6.28283     10.27239        -0.033945     -0.092024     -0.053269
Li	      4.22565      4.15829      8.39607        -0.004114      0.021677     -0.083086
Li	      6.24174      6.15675      8.40726         0.013430      0.031951     -0.028654
Ti	      2.08769      0.20547      2.18888        -0.022532      0.394058      0.148776
Ti	      6.30346      8.30226     10.36235        -0.016595     -0.018868     -0.016690
Mn	      4.15970      2.10116      6.26088         0.139256     -0.156282     -0.034074
V	     10.28268      4.14743      6.26381        -0.222148      0.175486      0.073280
V	      6.15911      8.31884      6.29655         0.045921      0.040540      0.121427
Fe	      4.10516      6.25897      6.23780        -0.126341      0.025255      0.036132
Co	     10.27806      8.35906     10.44439         0.111696     -0.052921     -0.009084
Cu	      2.06147      4.18652      2.16760         0.161182     -0.069700     -0.005934
Ni	      6.24623      4.17336      6.31967         0.008428     -0.026603     -0.094088
O	      2.07018      2.05021      2.16703        -0.039563     -0.489049      0.017127
O	      4.17755      4.16821      2.02703         0.204674      0.017585      0.076539
O	      4.30483      2.09916      4.30285         0.065404      0.022879      0.023464
O	      6.23208      4.07482      4.10896        -0.025167     -0.070541     -0.243410
O	      6.26258      2.08686      6.12955        -0.017399     -0.046793     -0.140317
O	      8.31266      4.19807      6.17902         0.039056      0.088449     -0.150830
O	      1.88218      4.20898      4.37743        -0.126140      0.017683     -0.057757
O	      4.05620      6.44702      4.29856         0.027756      0.007892     -0.065017
O	      4.14246      4.24260      6.24629        -0.078898     -0.069543      0.056017
O	      6.14018      6.30063      6.31678        -0.045348      0.004401     -0.022491
O	      6.29175      4.17914      8.46301        -0.057639      0.033462      0.162635
O	      8.29803      6.19206      8.17602        -0.029030      0.092504     -0.053380
O	      1.97490      6.17762      6.43038         0.130359      0.036504      0.069988
O	      4.06764      8.35772      6.15277         0.015268     -0.097560     -0.042321
O	      3.95616      6.34460      8.24200        -0.114461     -0.041920      0.086603
O	      6.16092      8.41247      8.43284         0.031156      0.043507      0.197755
O	      6.22348      6.28841     10.50579         0.043440      0.067504     -0.094087
O	      8.23054      8.34716     10.40071        -0.075741      0.018015     -0.036778
