# total energy = -229.82851100 eV
 
CRYSTAL
PRIMVEC
-0.031061 6.103940 6.506963 
6.390445 0.025689 6.447669 
4.310390 4.082154 -0.032052 
PRIMCOORD
36 1
Li	      6.41140      6.10112     12.78298         0.017469      0.047375      0.054542
Li	      2.36492      6.12039      8.72044        -0.061740      0.030387      0.030491
Li	      4.32561      7.96617      8.72342         0.040067     -0.001086      0.009134
Li	      4.30337      6.08884     10.61261        -0.039449      0.010006      0.000903
Li	      6.43804      8.05859     10.63017         0.021404      0.044395     -0.007380
Li	      2.15739      2.05844      4.31750        -0.017681     -0.016720      0.000254
Li	      4.20587      6.13282      6.85952        -0.034838      0.014417      0.033418
Li	      4.21222      4.21722      8.73373         0.013218     -0.059819      0.067773
Li	      6.12526      6.11679      8.80833        -0.009405      0.031158      0.041495
Ti	      4.36850      4.05840      4.19609         0.254324      0.015384     -0.165988
Ti	      6.31049      8.23600      6.70817        -0.259195      0.098665      0.616717
Mn	      2.13692      8.06276      6.48154        -0.112940      0.018915      0.307887
V	      8.52257      4.11524      8.61560        -0.038094      0.032323     -0.100414
V	      4.26553      2.05698      6.38206         0.084192     -0.008086      0.066457
Fe	      6.33513      4.19116      6.45202         0.027817     -0.063213     -0.063265
Co	      6.39129      2.07272      8.58049        -0.572620      0.102017     -0.721956
Cu	     10.62143      8.19051     10.74951        -0.093139     -0.052526      0.057299
Cu	      8.43809      6.14709     10.74414         0.096567     -0.015981     -0.064361
O	      6.47950      6.01559     10.78667        -0.109333      0.031997      0.025890
O	      1.99964      2.07561      1.97769        -0.334495      0.153229      0.240285
O	      4.22920      4.08679      2.27876         0.053539      0.769204      0.104780
O	      4.28798      2.15415      4.36986        -0.002894      0.240301     -0.076572
O	      6.23638      4.17686      4.41960        -0.355493     -0.078166     -0.019849
O	      6.29908      2.12410      6.50264         0.121824     -0.085102      0.710461
O	      8.42168      4.02435      6.52117         0.073798     -0.028531     -0.061339
O	      2.25117      4.11018      4.19522         0.101956     -0.136827      0.068063
O	      4.15642      6.17216      4.06204         0.213400     -0.118627     -0.548767
O	      4.22519      4.14301      6.29682        -0.070381      0.006965     -0.093133
O	      6.56978      6.19881      6.39398        -0.020273      0.103672      0.010079
O	      6.43477      4.08429      8.47652        -0.034083     -0.959149     -0.097478
O	      8.69838      6.09045      8.36393         0.690872     -0.100035      0.108353
O	      2.12694      6.07957      6.60738         0.008908     -0.227301      0.106595
O	      4.45429      8.12414      6.48054         0.305478      0.023536      0.170430
O	      4.24014      6.09251      8.74489         0.063585      0.032624     -0.048771
O	      6.43554      8.13387      8.50459        -0.027704     -0.018165     -0.590479
O	      8.48757      8.09226     11.02220         0.005338      0.162764     -0.171553
