# total energy = -231.98381619 eV
 
CRYSTAL
PRIMVEC
0.020678 6.231193 6.418483 
6.171529 0.025306 6.413241 
4.128416 4.164004 0.003367 
PRIMCOORD
36 1
Li	      4.13902     10.33559      6.42025         0.005700      0.018912     -0.018097
Li	      8.26976      8.37966     12.79515        -0.039363      0.042479     -0.017924
Li	      4.13815      8.33627      8.46338         0.023803     -0.006996     -0.083457
Li	      8.25857     10.33677     10.76153        -0.016833     -0.007301      0.036143
Li	      6.17795      2.14582      8.54883         0.028967      0.042061     -0.008660
Li	      4.12828      4.20121      4.28456         0.010980     -0.007518     -0.002321
Li	      6.17772      4.15490      6.44544        -0.011550      0.003724      0.051613
Li	      4.13030      6.28426      6.38846         0.022276     -0.001254     -0.035831
Li	      4.15482      4.16378      8.56912         0.028056     -0.017849      0.012009
Ti	      2.21323      6.28886      8.58350         0.117068      0.024737      0.193558
Ti	      4.23922      2.11845      6.32011         0.434850      0.032392     -0.336157
Mn	      6.16109      8.32185      6.41956        -0.118312     -0.000145      0.031801
V	      2.18299      4.12318      2.08211         0.040136     -0.042171      0.004139
V	      6.14338      6.24425      8.57808        -0.116892      0.111518      0.037404
Fe	      2.16284      6.30586      4.34906        -0.082934     -0.145900      0.004142
Co	      6.12936      6.21480      4.28624         0.034494     -0.023078      0.002017
Ni	      6.18223      2.11972      4.29231        -0.076381     -0.018515      0.054640
Ni	      4.11964      8.32726      4.32440        -0.014673      0.039020     -0.032551
O	      2.05463      2.03833      2.09509        -0.001384     -0.095831      0.031748
O	      3.99900      4.15122      2.13772        -0.016675     -0.042885     -0.022674
O	      4.06699      2.03865      4.44070        -0.063066      0.006040      0.377770
O	      6.15011      4.16345      4.08080        -0.009936      0.129477     -0.282322
O	      6.09476      2.13923      6.37428        -0.509356     -0.019359      0.098358
O	      8.21521      4.27828      6.55364        -0.004377      0.066717      0.045373
O	      2.06995      4.19558      4.15649         0.076308     -0.026448     -0.053239
O	      4.10074      6.25629      4.28641         0.032429     -0.100627     -0.026979
O	      4.01669      4.03683      6.45792        -0.036342     -0.114238      0.018340
O	      6.21046      6.32157      6.53496         0.117112      0.026648     -0.085729
O	      6.33125      4.26099      8.58808         0.012985     -0.124732     -0.087554
O	      8.22842      6.15952      8.52410         0.022763      0.092335      0.017291
O	      2.07204      6.14447      6.48177         0.021024     -0.007295      0.039136
O	      4.26389      8.33505      6.35702         0.090808     -0.024827      0.136808
O	      4.05233      6.24337      8.56097        -0.125281     -0.015479     -0.009990
O	      6.15400      8.38981      8.62148         0.033599      0.064350     -0.125307
O	      6.26439      6.28113     10.57476         0.105053      0.012354      0.045495
O	      8.25180      8.25189     10.71876        -0.015055      0.129683     -0.008993
