# total energy = -233.47690655 eV
 
CRYSTAL
PRIMVEC
0.009400 6.257700 6.538773 
6.216298 0.009207 6.538839 
4.156850 4.184527 -0.006585 
PRIMCOORD
36 1
Li	      8.30479      2.13639      6.53535         0.030241      0.141360      0.025723
Li	      6.22278      2.14927      4.34889         0.018737     -0.021818      0.005008
Li	     10.17107      6.27745      8.66591         0.054748     -0.024636      0.011587
Li	      8.29496      4.32854      8.67645         0.010668     -0.094845     -0.048440
Li	      4.15898      4.08484      4.38840        -0.005220     -0.077155      0.040944
Li	      8.30100      6.30132      6.66767        -0.039757     -0.026395      0.013795
Li	      6.23698      4.13546      6.61543         0.043893     -0.024936      0.049976
Li	      8.27991      6.27407     10.66953        -0.014764     -0.021157     -0.040414
Li	      8.31948      8.20198      8.74379        -0.072041      0.092394     -0.005046
Ti	      6.17343      4.19984     10.74331         0.085996      0.075366     -0.223451
Ti	      4.10155      6.14131      6.49213         0.306942     -0.278505     -0.058701
Mn	      4.16313      2.11911      2.18862         0.131967      0.000751     -0.033491
V	      6.24206      0.16553      6.56753        -0.693696     -0.229408     -0.042238
V	      2.06324      2.07716      4.33372        -0.001903      0.294507     -0.097097
Fe	      8.25903      4.20578      4.54220         0.262352     -0.012137      0.076247
Co	      6.26865     10.42409      8.74706        -0.046468     -0.134200      0.228715
Co	      2.09602      4.17006      6.50474        -0.230187     -0.055185     -0.081235
Cu	      6.34317      6.28390      8.67100        -0.192678      0.025533      0.022755
O	      8.23112      6.29152      8.68909         0.197174     -0.019699      0.006427
O	      2.22168      2.05450      2.33910        -0.032669      0.056910     -0.037988
O	      4.18884      4.08600      2.03472         0.052965      0.054454     -0.180023
O	      4.13858      2.00172      4.37229         0.056496      0.032918     -0.025156
O	      6.30055      4.23114      4.36286        -0.163873     -0.072222     -0.169692
O	      6.27441      1.91396      6.58632         0.070291      0.090807      0.051788
O	      8.42178      4.16810      6.49434         0.230046      0.034143      0.106619
O	      1.97614      4.10562      4.40894        -0.053962     -0.105403     -0.098790
O	      4.10643      6.38275      4.48138        -0.083258      0.043184      0.130312
O	      4.13906      4.29935      6.51624        -0.031401      0.384562     -0.062295
O	      6.05603      6.23193      6.35901         0.037537      0.604670      0.037401
O	      6.23880      4.22626      8.88558        -0.034996     -0.108421      0.217810
O	      2.11545      6.29762      6.58996         0.029518     -0.577227     -0.009635
O	      4.17387      8.38026      6.43438         0.063722     -0.056343      0.029816
O	      4.23929      6.37389      8.55712        -0.039236      0.004150     -0.160132
O	      6.15161      8.34504      8.63656        -0.090574      0.078026      0.012800
O	      6.20783      6.18074     11.11217         0.107413     -0.024163      0.241152
O	      8.41265      8.48378     10.85233         0.035977     -0.049878      0.064952
