# total energy = -232.03819173 eV
 
CRYSTAL
PRIMVEC
0.023492 6.429935 6.282090 
6.120369 0.031255 6.274107 
4.105686 4.307022 -0.004730 
PRIMCOORD
36 1
Li	      0.16797      6.48499      6.33673        -0.031545      0.020096      0.024200
Li	      2.02657      8.38170      6.35269         0.029406     -0.084267      0.039445
Li	      2.03320      6.53807      8.18667        -0.037860      0.037938      0.051847
Li	      6.19554      2.17760      8.29208         0.033181      0.043771     -0.060907
Li	      8.19533      4.28037      8.29990        -0.037595     -0.044914     -0.092753
Li	      2.06172      2.17892      4.11148         0.069462     -0.000157      0.076630
Li	      2.06521      6.47210      4.34256        -0.061660      0.026062      0.054465
Li	      2.05445      4.46634      6.27980        -0.034279     -0.052876      0.023986
Li	      6.19353      6.45510      8.33086        -0.011676     -0.043132     -0.104287
Ti	      4.11509      4.52445      4.11956         0.222379     -0.029961     -0.404915
Ti	      0.16476      4.35709      4.22162         0.213095      0.228499     -0.091314
Mn	      6.15924      8.56154     10.48982        -0.100325     -0.010734      0.127294
V	      8.13489      4.32589      4.19295        -0.107216      0.094529      0.299386
V	      8.15748      8.56420      8.33693         0.072135     -0.435814     -0.003372
Fe	      4.00505      8.59913      8.24637         0.319437      0.052765     -0.009678
Co	      8.06540      6.41792      6.35674         1.239440      0.173837     -0.305500
Co	      6.18579      4.28169      6.37228        -0.160308      0.302646     -0.277542
Ni	      4.06164      6.45620      6.31063         0.239800      0.039237      0.093418
O	      2.15205      2.17147      2.05893        -0.297229     -0.005539      0.001091
O	      4.10183      4.21994      2.26833        -0.021175      0.086775      0.360616
O	      4.16668      2.14590      4.13437        -0.148519     -0.012863      0.356754
O	      6.07961      4.34701      4.21376        -0.191660      0.008841     -0.263689
O	      6.00444      2.19051      6.14773        -0.332985      0.022346      0.221509
O	      8.17991      4.40733      6.18901        -0.106816      0.799791      0.100251
O	      2.04124      4.30816      4.17229        -0.093069      0.065239     -0.010619
O	      4.12088      6.38968      4.17576        -0.032417     -0.109065     -0.003708
O	      4.09645      4.28921      6.19391        -0.152696     -0.503714      0.048428
O	      6.20708      6.42241      6.27613        -0.033056     -0.514159      0.210616
O	      6.06990      4.30147      8.53561         0.047079     -0.083763      0.397040
O	      8.21307      6.60656      8.29400        -0.163382      0.207072     -0.777915
O	      2.10877      6.42329      6.28042        -0.250012     -0.001393     -0.037605
O	      4.15447      8.52411      6.19200         0.005920      0.020543     -0.132035
O	      4.10994      6.41122      8.45003        -0.001078     -0.063775      0.047486
O	      6.15891      8.56810      8.53389        -0.080678     -0.015889      0.009717
O	      6.07285      6.28263     10.49189         0.047794     -0.178665      0.021144
O	      8.17900      8.66354     10.43584        -0.051890     -0.039311      0.010516
