# total energy = -234.38178225 eV
 
CRYSTAL
PRIMVEC
0.079078 6.296120 6.139881 
6.398349 0.051653 6.167353 
4.283831 4.233934 0.016180 
PRIMCOORD
36 1
Li	      0.09379      0.09325      0.09880         0.181315     -0.070345     -0.126544
Li	      2.21768      8.29967      6.25568         0.059894     -0.025705     -0.098428
Li	      2.13651      6.32707      8.08646         0.010879     -0.250468      0.081119
Li	      4.35543      8.50016      8.09491         0.234040     -0.008688      0.071405
Li	     10.62152      6.30264      8.11081        -0.015256     -0.037203      0.112880
Li	      8.63502      6.34108      6.28234        -0.009850      0.056489     -0.140090
Li	      2.23838      6.28126      4.09211        -0.113611      0.159250      0.044806
Li	      8.54848      8.32199      8.17911        -0.333340     -0.078486      0.181502
Li	      6.59098      6.38658      8.15378         0.011757      0.326557      0.192041
Ti	      4.33395      6.35152     10.09338         0.679837     -0.110497     -0.906801
Ti	     10.69803      8.48373     10.28841        -0.823961      0.697227      0.784880
Mn	      8.64807      4.34371      8.16403         0.332182      0.093204      0.153773
V	      2.17112      2.13553      4.06108         0.244365     -0.354257     -0.258366
V	      6.42721      4.20670      6.21276        -0.078366     -0.749674     -0.361364
Fe	      6.50912      8.39447     10.19699         0.074658     -0.432872     -0.234922
Co	      4.27630      4.23477      4.06717         0.053067     -0.134047     -0.097728
Co	      6.48309      8.52417      6.32660        -0.281220      0.104002      0.269281
Co	      4.30057      6.33880      6.22867        -0.338120      0.307881      0.078721
O	      2.15975      2.29969      2.15264        -0.098052      0.056460      0.197709
O	      4.22177      4.26031      2.09427        -0.310207      0.125829     -0.146504
O	      4.23275      2.07624      4.12990        -1.028952     -0.018000      0.187186
O	      6.50187      4.23769      4.09576        -0.074309      1.085895      0.738031
O	      6.40225      2.23273      6.00867         0.102524      1.626733      1.278099
O	      8.38938      4.28954      6.01745        -0.762731     -0.055432      0.339487
O	      2.04664      4.19912      4.21315         0.177381     -0.036004      0.304847
O	      4.38082      6.40451      4.25218         0.136835      0.001004      0.018472
O	      4.37574      4.36967      6.13092         0.819119      0.075986      0.087384
O	      6.30943      6.29126      6.12937         0.002982     -0.540480      0.182480
O	      6.54690      4.22228      8.32093         0.026289     -0.055142     -1.198544
O	      8.60132      6.23696      8.22784         0.091890     -0.199576     -0.128083
O	      2.37314      6.28902      6.16973         0.259584     -0.386747      0.005960
O	      4.32803      8.29775      6.08165         0.000964     -0.194723     -0.163071
O	      4.32745      6.35947      8.21685        -0.056895     -0.036020      0.301199
O	      6.49799      8.39841      8.33269         0.022992      0.112802     -1.942659
O	      6.31785      6.27549     10.32288        -0.226273     -1.223768      0.084469
O	      8.70439      8.57272     10.21936         1.028589      0.168814      0.107374
