# total energy = -228.74115291 eV
 
CRYSTAL
PRIMVEC
-0.036427 6.558448 6.189453 
6.222130 -0.005204 6.157989 
4.133881 4.336876 0.010944 
PRIMCOORD
36 1
Li	     10.19378      4.33420      6.22279         0.076236     -0.006285     -0.052218
Li	      8.26968      2.34467      6.26041        -0.034547     -0.052366     -0.018216
Li	      8.28624      4.31306      4.32952         0.025695     -0.015675     -0.033134
Li	      4.09065      6.46117      2.04717        -0.007028      0.003780      0.015593
Li	      6.18641      6.53517      4.14538        -0.035274      0.073041      0.035244
Li	      8.24045      6.27531      6.12052         0.014657      0.003455     -0.026048
Li	      6.29818      4.37527      6.09580        -0.056575      0.001794      0.061580
Li	      8.26855      6.58236     10.27197         0.031815     -0.023801     -0.001524
Li	      2.10725      4.40423      6.08238         0.028792      0.023988     -0.009696
Ti	      4.11749      8.70934      4.21117         0.065528     -0.153133     -0.013682
Ti	      6.35017      6.57617      8.12881         0.234859     -0.070933     -0.054918
Mn	      6.12138     10.83619      8.25621         0.063461      0.065380     -0.029880
V	      6.25094      2.11302      4.30805        -0.026997     -0.064515     -0.133842
V	      4.05738      6.53045      6.10495         0.180050     -0.138323      0.014836
Fe	      4.03531      2.12446      2.14251         0.160342     -0.102867     -0.123146
Cu	      8.26272      4.33007      8.18985        -0.072298     -0.020117      0.041064
Cu	      4.06685      4.28416      4.17780        -0.071737      0.081263      0.121685
Ni	      4.16443      4.43583      8.16744         0.006120      0.060854     -0.019910
O	      8.25235      4.31028      6.29605         0.011359     -0.012050     -0.119596
O	      2.12232      1.91802      2.12733        -0.191765     -0.078897     -0.009773
O	      4.03085      4.13200      2.15024         0.127869      0.054983     -0.093790
O	      4.28629      2.00132      4.08356        -0.024501     -0.101327      0.063080
O	      6.12359      4.07482      4.07596         0.063484     -0.069200     -0.045657
O	      6.25008      2.08608      6.04049         0.007311     -0.030859      0.152994
O	      1.94419      4.43150      4.04614        -0.140605      0.055384     -0.012149
O	      4.08838      6.83142      4.07545         0.027417      0.298234     -0.040590
O	      4.14870      4.60022      6.09618         0.022414      0.055534     -0.048831
O	      6.11778      6.60289      6.22753         0.101245      0.020357      0.183354
O	      6.20408      4.60918      8.29258        -0.043796      0.134274      0.066548
O	      8.19066      6.75922      8.13101        -0.173024     -0.105748     -0.032413
O	      2.17845      6.52360      6.29405        -0.263382     -0.018187      0.040268
O	      4.13215      8.64694      6.13546        -0.011221      0.116388     -0.009333
O	      4.24397      6.59677      8.15774        -0.061186      0.084108      0.090379
O	      6.16379      8.67873      8.33073        -0.064231     -0.036894     -0.080062
O	      6.23942      6.59265     10.18543         0.032171     -0.033937      0.027027
O	      8.29728      8.78145     10.24872        -0.002659      0.002298      0.094754
