# total energy = -228.77567899 eV
 
CRYSTAL
PRIMVEC
0.061617 6.165377 6.490362 
6.357446 0.003649 6.547457 
4.218608 4.129279 0.021013 
PRIMCOORD
36 1
Li	      6.44170      6.17033     12.93777        -0.030056      0.095084     -0.076093
Li	      2.16672      8.13504      6.49216         0.004246     -0.021273      0.031874
Li	      2.06055      0.04372      2.14363         0.010730      0.046447     -0.000526
Li	      0.08803      2.06558      2.13484         0.053152     -0.071823     -0.034628
Li	      6.33330      6.19973      4.43178         0.036810     -0.095025      0.049461
Li	      6.32622      4.13837      6.60768         0.071175     -0.009724     -0.062804
Li	      2.16990      6.18508      4.48318         0.034208     -0.015707      0.083804
Li	      4.29187      6.19511      6.43849        -0.043556     -0.010506      0.002999
Li	      6.37934      6.10930      8.74371         0.019495      0.035072     -0.011257
Ti	      4.09646      1.99362      2.15344        -0.418717     -0.242327      0.161490
Ti	      2.17280      4.25747      6.60510         0.066431      0.292124     -0.049434
Mn	      6.51429      8.14630     10.80421        -0.108436      0.076652      0.153235
V	      8.47158      6.08986      6.72500         0.295733     -0.146139     -0.442639
V	      4.28013      4.23909      4.31909         0.061472     -0.234879     -0.122357
Fe	      6.40438      4.12035     10.73810         0.246724     -0.103339      0.343283
Cu	      4.31696      6.17885     10.83810        -0.054396      0.312354      0.103497
Cu	      2.09788      4.05543      2.18957         0.047259      0.169889     -0.072168
Cu	      4.36439      4.13813      8.74516        -0.011952     -0.035313     -0.015173
O	      2.21487      2.08147      2.06373         0.231049     -0.158066     -0.036298
O	      4.10542      4.06680      2.34851         0.111650      0.039015     -0.046932
O	      4.19777      2.09668      4.21420        -0.090727      0.145524     -0.128679
O	      6.06103      4.13660      4.34125        -0.150693      0.033783     -0.021339
O	      6.07992      2.10190      6.45727        -0.112139     -0.033814      0.063923
O	      8.41943      4.31201      6.32879        -0.033212     -0.043195      0.190905
O	      2.22257      4.11408      4.57462        -0.155828     -0.039020      0.062100
O	      4.25069      6.17931      4.36207        -0.058577      0.280299      0.061405
O	      4.18211      4.03017      6.36025        -0.004847      0.188961      0.246454
O	      6.61216      6.26927      6.53580        -0.202576     -0.028781      0.085855
O	      6.49800      4.07862      8.78387        -0.397685     -0.008181     -0.249402
O	      8.49730      6.12608      8.48651         0.010711      0.202564      0.476217
O	      2.19101      6.08312      6.58581         0.028262     -0.346516     -0.084722
O	      4.42311      8.19636      6.67952        -0.059492      0.037382     -0.189526
O	      4.24949      6.28005      8.83959         0.024180     -0.131379     -0.287809
O	      6.27072      8.24071      8.58013         0.251488      0.002082      0.012450
O	      6.55006      6.03994     10.87629         0.228397      0.074791     -0.033534
O	      8.63357      8.31345     11.00012         0.099718     -0.257015     -0.163633
