# total energy = -92.68369955 eV
 
CRYSTAL
PRIMVEC
2.103737 4.220420 2.103785 
2.150087 -4.266597 2.150091 
4.258485 -0.000027 -4.258553 
PRIMCOORD
16 1
Li	      2.25245     -0.01926      2.10607        -0.007624     -0.117919      0.503344
Li	      2.27604     -2.08120      0.02982         0.134830     -0.250069     -0.056306
Li	      4.38500     -0.02090     -0.02413         0.349879     -0.127480      0.080726
Li	      4.35315     -2.18389     -2.14500         0.115958     -0.054652      0.096256
Mn	      0.20048     -0.00120      0.00985        -3.531897      0.009968     -0.115694
Mn	      2.23532      2.05671      0.02529        -0.062529      1.815959     -0.742409
Ni	      2.30355     -0.00101     -2.09301        -0.377150     -0.046099     -1.107132
Ni	      4.39113      2.05679     -2.12983        -0.725527      0.785277      0.210306
O	      6.69869     -0.02234      0.00077         0.228789     -0.238700      0.215920
O	      4.19524      2.13916     -0.02362        -0.474887     -0.556358      0.208766
O	      4.35719     -0.02389     -2.34154         0.430112     -0.074292      0.604195
O	      4.36417     -0.16961      2.29432         0.305753     -0.698254     -0.265995
O	      4.38076     -2.18532      0.16111         0.085461      0.171314      0.968118
O	      2.16480      2.28615      2.04630         0.822991     -0.693641     -0.599130
O	      2.06265      0.12353     -0.00717         1.566257     -0.145124      0.341434
O	      2.31002     -2.33310      2.19228         1.139584      0.220069     -0.342398
