# total energy = -228.68880455 eV
 
CRYSTAL
PRIMVEC
0.048466 6.257571 6.336678 
6.304778 0.036695 6.348264 
4.208956 4.185087 0.018894 
PRIMCOORD
36 1
Li	      0.27064      6.29710      6.25603        -0.060312      0.036012     -0.040746
Li	      2.13146      8.14461      6.28307        -0.006210      0.117499     -0.072019
Li	      2.13697      6.30042      8.15937        -0.046163      0.018486     -0.015043
Li	      6.38311      8.29746     10.63482        -0.018807      0.024329      0.020892
Li	      4.18072      4.20225      4.28880         0.044587     -0.023879      0.028043
Li	      4.22589      2.11763      6.34246        -0.003083     -0.020341      0.014301
Li	      2.11113      6.26146      4.42088        -0.048381      0.013236     -0.116826
Li	      2.15217      4.43591      6.24000         0.007042     -0.067010     -0.075203
Li	      4.01795      6.26682      6.35635         0.079899      0.002955     -0.061276
Ti	      4.21250      8.44793      8.27400        -0.059178      0.195587     -0.209124
Ti	      8.28215      8.36095      8.42448        -0.129329     -0.132972     -0.097192
Mn	      8.50036     10.45482     10.62366        -0.100260      0.103637      0.083151
V	      6.29933      6.29468      4.36090         0.058764     -0.067335      0.017057
V	      6.34669      4.09154      6.38817         0.006888     -0.047857     -0.048803
Fe	      2.19226      4.21885      2.13142        -0.091874      0.078501      0.062176
Ni	      4.27954      6.18948      2.12280         0.036527     -0.084747     -0.000050
Ni	      4.24891      8.37238      4.34576         0.036020     -0.046304      0.030253
Ni	      6.31916      6.29834      8.45827         0.071743     -0.018583     -0.086952
O	      2.14102      6.29456      6.27601         0.023373      0.041014     -0.095247
O	      2.20944      2.05969      2.22786         0.214682     -0.088419      0.019720
O	      4.27856      4.09353      2.16590         0.135118     -0.345195     -0.035629
O	      4.07018      2.01901      4.14719         0.014735     -0.070952      0.009590
O	      6.44543      4.24749      4.42663         0.012520     -0.018151      0.070777
O	      6.28307      2.26551      6.40183        -0.025155      0.035861     -0.062051
O	      8.26852      4.25434      6.46927        -0.016649     -0.025434     -0.124429
O	      2.11037      4.06531      4.20823         0.113988     -0.025072      0.135024
O	      4.45455      6.26484      4.14769        -0.014210     -0.069627      0.135753
O	      4.31611      4.19920      6.49267         0.012231     -0.048843      0.218173
O	      6.34171      6.14273      6.28946        -0.014915     -0.009706      0.013740
O	      6.23947      4.20984      8.42086        -0.110445     -0.018850      0.014972
O	      8.44330      6.44273      8.53325        -0.018325      0.285137      0.025835
O	      4.23360      8.37262      6.46119        -0.007805      0.024436      0.334257
O	      4.26545      6.28630      8.41702        -0.092873     -0.018244     -0.027410
O	      6.35384      8.35308      8.47545         0.119765      0.116042     -0.047288
O	      6.21383      6.26267     10.53384        -0.010667      0.114600      0.061224
O	      8.49571      8.49746     10.43812        -0.113239      0.040186     -0.079649
