# total energy = -236.73374208 eV
 
CRYSTAL
PRIMVEC
0.027936 6.300508 6.347878 
6.306782 0.022167 6.353668 
4.218505 4.218274 0.000738 
PRIMCOORD
36 1
Li	      4.18655      0.09614      4.27677        -0.005435      0.046490      0.078376
Li	      6.23083      2.13155      4.20476        -0.024820     -0.029200      0.025545
Li	      0.06379      2.09349      2.10831         0.036945     -0.017809      0.023953
Li	      2.12141      4.16392      2.15777         0.014191      0.003140     -0.012836
Li	      2.22635      2.16443      4.20089         0.012199      0.029196      0.006434
Li	      4.15213      4.11669      4.27315        -0.060087      0.014568      0.061690
Li	      4.18299      2.15660      6.21380        -0.029595     -0.010976     -0.144936
Li	      6.35651      8.40145      6.34929         0.026857      0.027604      0.002816
Li	      8.40962      8.41065      8.49192        -0.017535     -0.008373      0.007226
Ti	      6.39752      4.11480      6.27627         0.132510      0.007677     -0.219687
Ti	      4.31594      6.26469      6.34986         0.139416     -0.318743      0.004082
Mn	      6.31019      4.18586      2.28314         0.002387      0.087757     -0.008965
V	     10.45103      4.26933      6.37564         0.143450      0.049422     -0.219456
V	      8.44201      6.31336     10.47188         0.001667     -0.048424     -0.201593
Fe	      4.18391      2.15788      2.29874         0.007630     -0.105930     -0.087027
Fe	      6.34981      4.21076     10.45207        -0.063338      0.113659      0.081920
Co	      8.40438      2.15203      6.37686        -0.053972      0.046032     -0.041462
Co	      6.33904      6.35723      8.47027        -0.046138      0.080155      0.266642
O	      2.18864      2.08851      2.07941        -0.087435     -0.070725      0.048318
O	      4.21255      4.16475      1.97223        -0.076459      0.078635     -0.033599
O	      4.19737      2.13192      4.17636         0.029604     -0.018681      0.037307
O	      6.36094      4.18741      4.43143        -0.027921     -0.026186      0.262732
O	      6.28530      2.18234      6.39961        -0.055518     -0.117043     -0.025760
O	      8.39132      4.27228      6.35536        -0.282330     -0.079752      0.032527
O	      2.03371      4.32059      4.22642         0.023006      0.037796      0.039837
O	      4.13516      6.36165      4.33019         0.065046     -0.055664      0.086344
O	      4.34135      4.35450      6.36251         0.082328      0.254637     -0.015163
O	      6.23052      6.23866      6.31629        -0.233760     -0.024455      0.098489
O	      6.32775      4.28922      8.43686         0.064824      0.054754     -0.197962
O	      8.42141      6.37170      8.67723         0.016019     -0.008343      0.115393
O	      2.13243      6.29569      6.20586         0.205982      0.004101      0.024312
O	      4.23906      8.37854      6.28574         0.098511     -0.050059      0.113563
O	      4.23247      6.38109      8.29275        -0.049096     -0.023741     -0.074459
O	      6.25275      8.36643      8.46624         0.124829     -0.139575     -0.090882
O	      6.41344      6.26421     10.68426        -0.072618      0.278904     -0.027591
O	      8.55152      8.33824     10.62066        -0.041345     -0.060853     -0.016128
