# total energy = -232.53488478 eV
 
CRYSTAL
PRIMVEC
-0.035563 6.361344 6.172765 
6.314666 -0.011728 6.148648 
4.205492 4.220809 -0.003532 
PRIMCOORD
36 1
Li	      4.17356     10.49737      6.20649         0.009954     -0.031893      0.028303
Li	      2.12195      8.49062      6.19945         0.019740      0.019972      0.072996
Li	      6.22064      6.35611      4.12915        -0.087128      0.013191     -0.067219
Li	      4.20154      4.27913      4.10307         0.009760     -0.014599     -0.077914
Li	      8.36189      6.33738      6.15287        -0.009425     -0.044820     -0.031893
Li	      6.21926      4.31756      6.18246        -0.038996      0.048328      0.035967
Li	      2.13917      6.32848      4.14746        -0.029506     -0.048363      0.006192
Li	      4.20380      6.32227      6.10436        -0.007749      0.044714     -0.005607
Li	      4.22126      4.23882      8.16574         0.033997      0.054118      0.002140
Ti	      6.34193      2.11844      4.27335        -0.028149      0.037691      0.312325
Ti	      2.25711      4.24131      6.07962         0.108629      0.042688     -0.191653
Mn	     10.42420      6.32281      8.16240        -0.032176      0.014478     -0.048669
V	      2.08828      6.36262      8.16647        -0.013027      0.054427     -0.022484
V	      6.33513      6.35193      8.17066         0.010542     -0.010261      0.036066
Fe	      8.40776      4.23797      4.26569         0.037404      0.044518     -0.169165
Fe	      4.13852      8.37016      4.16733        -0.050433      0.062914     -0.105700
Cu	      4.17601      2.15109      1.99006        -0.086840     -0.021552     -0.018309
Cu	      8.39397      4.16546      8.11023        -0.013833     -0.012889      0.060704
O	      1.86790      2.11234      2.03775         0.091757     -0.159012      0.017572
O	      4.39001      4.12716      2.06648         0.135178      0.124284      0.001169
O	      4.39376      2.04183      4.03626         0.120129      0.062218      0.125945
O	      6.39335      4.09667      4.06269        -0.049403     -0.093833      0.001807
O	      6.27740      2.10559      6.11487         0.000861     -0.005017     -0.362901
O	      8.40659      4.22989      6.12830        -0.002945     -0.005158      0.174241
O	      1.98596      4.22264      4.16767         0.100181     -0.027957      0.168919
O	      4.13231      6.42951      3.96985        -0.014459     -0.134509      0.125211
O	      4.07648      4.22914      6.08652        -0.177439     -0.027114     -0.008638
O	      6.25577      6.45850      6.22803         0.143005      0.064784     -0.121337
O	      6.15472      4.32107      8.31712        -0.180003     -0.105605     -0.081667
O	      8.38365      6.16851      8.18644        -0.272738      0.166616     -0.010460
O	      2.12459      6.21639      6.22426         0.003035     -0.121120     -0.011890
O	      4.25178      8.46669      6.11587         0.024026      0.000100      0.068630
O	      4.17995      6.48803      8.29206         0.140558     -0.086329      0.032860
O	      6.44943      8.45757      8.20660         0.094708      0.078713      0.023364
O	      6.24784      6.42288     10.22423         0.093293     -0.010649      0.031878
O	      8.31879      8.52662     10.32602        -0.082509      0.026928      0.009218
