# total energy = -236.61527819 eV
 
CRYSTAL
PRIMVEC
-0.023605 6.297464 6.281737 
6.438707 0.005004 6.253370 
4.290629 4.177441 0.005253 
PRIMCOORD
36 1
Li	      6.40811      6.30299     12.48101        -0.014816     -0.031049      0.014791
Li	      4.41333      6.22656     10.45892         0.121031     -0.003053     -0.013973
Li	      6.44222      8.32789     10.43965        -0.019841     -0.036935      0.002966
Li	      8.45579      4.17978      8.38800        -0.025595     -0.054752      0.005824
Li	      6.38108      6.32017      4.18400         0.008074      0.064105     -0.013231
Li	      6.37742      4.19805     10.32750         0.003039     -0.021496     -0.011720
Li	      4.26503      6.30987      6.23676        -0.000790      0.067957      0.025717
Li	      4.36481      4.24965      8.40235         0.013683      0.019185     -0.057281
Li	      6.38106      6.19542      8.39296        -0.045691      0.014046     -0.011035
Ti	      6.52945     10.45445      8.49186         0.331371      0.091608      0.204350
Ti	      8.40906      6.34488     10.23804        -0.430098     -0.146790     -0.292513
Mn	      6.34044      8.34846      6.25516        -0.082666     -0.039176     -0.040055
V	      2.15265      8.36915      6.26866         0.105375      0.259859      0.011185
V	      4.29545      2.09744      2.14919        -0.101688     -0.013759     -0.006853
Fe	      4.26756      4.26635      4.18808        -0.063994     -0.220851     -0.130065
Fe	      8.56783      6.21228      6.23955         0.072596     -0.033396      0.100827
Fe	      6.43649      4.22877      6.35337         0.001380     -0.166352     -0.320140
Cu	      6.42034      2.14753      8.37868        -0.033533     -0.156088     -0.062370
O	      2.24313      1.99900      2.08111         0.243920     -0.104447     -0.056466
O	      4.43022      4.17579      2.15647         0.086870      0.029718      0.058828
O	      4.31232      2.17949      4.19775         0.075064     -0.016247      0.043250
O	      6.36453      4.20633      4.12320         0.001632      0.000487     -0.159065
O	      6.46534      2.14659      6.34066        -0.176493      0.051350     -0.144708
O	      8.51011      4.18884      6.22185        -0.026181     -0.081156      0.051807
O	      2.23393      4.32841      4.15348        -0.007496      0.098248      0.002208
O	      4.18788      6.23339      4.13487        -0.050817      0.236409      0.107490
O	      4.37531      4.09590      6.20090        -0.017766      0.087228      0.073755
O	      6.53791      6.20185      6.25230        -0.049465      0.055480      0.003035
O	      6.41159      4.11996      8.27263        -0.031821      0.193041      0.203773
O	      8.45710      6.29038      8.34201        -0.139100      0.015546      0.285102
O	      2.12163      6.38664      6.33173         0.018809     -0.099284      0.050556
O	      4.15543      8.41030      6.41916         0.133470     -0.049529     -0.007196
O	      4.16190      6.35595      8.42108        -0.310378     -0.118610      0.024246
O	      6.35366      8.54951      8.36858         0.001758      0.090031      0.066234
O	      6.56927      6.27006     10.43295         0.416803      0.001374     -0.037441
O	      8.58869      8.23646     10.46958        -0.006645      0.017297      0.028168
