# total energy = -224.02333808 eV
 
CRYSTAL
PRIMVEC
0.021592 6.355412 6.315043 
6.219560 0.021594 6.314936 
4.157734 4.248160 0.003104 
PRIMCOORD
36 1
Li	      0.22743      6.38361      6.46167        -0.023916     -0.000103      0.034297
Li	      2.07160      8.25588      6.47827        -0.005987      0.036723     -0.004030
Li	      1.95669      0.10111      1.94379         0.062981      0.048450      0.030955
Li	      6.26619      8.50302     10.49851         0.028787      0.036606      0.024816
Li	      2.26650      4.11382      2.11200        -0.009196      0.007768     -0.031868
Li	      2.05682      2.13494      4.02961        -0.049643      0.021867     -0.002229
Li	      4.16716      4.24260      4.06475         0.060085     -0.026174      0.024818
Li	      2.06725      6.36719      4.40257        -0.028352      0.012188      0.006862
Li	      2.09764      4.44981      6.39015        -0.018161     -0.010826      0.024310
Ti	      8.24716      4.27108      4.18244        -0.169604     -0.128089     -0.040136
Ti	      4.15876      2.13881      6.28547         0.065613     -0.028477      0.065339
Mn	      8.21885      8.47272      8.44515        -0.101415     -0.014540      0.075072
V	      6.24191      4.23844      6.31792         0.012257     -0.008617      0.022378
V	      4.29968      8.45915      4.40676         0.159076      0.017435      0.132239
Ni	      4.11062      2.24436      2.13569         0.078960     -0.020123     -0.074593
Ni	      4.25572      6.24629      2.13141        -0.059811      0.027820      0.036255
Ni	      4.08240      6.33883      6.30689         0.149072      0.017614     -0.000725
Ni	      6.25426      6.37217      8.44115         0.026679     -0.025747     -0.012954
O	      2.09570      2.16909      2.09111         0.018346      0.011280      0.022733
O	      4.17872      4.23328      2.15569         0.004676      0.048925     -0.019472
O	      4.18309      2.01931      4.28409        -0.021043     -0.095812      0.153033
O	      6.35667      4.22402      4.33713         0.177359      0.007569     -0.082040
O	      6.11834      2.22426      6.33200        -0.190184     -0.054646     -0.111786
O	      8.31075      4.41392      6.18836         0.038427      0.129005     -0.144394
O	      1.85861      4.28427      4.16834        -0.103628     -0.028946      0.024292
O	      4.11418      6.62902      4.17971         0.001423      0.070642      0.043239
O	      4.15423      4.17955      6.27815        -0.055240     -0.224153      0.053600
O	      6.26550      6.26027      6.33743         0.143714      0.009983     -0.086664
O	      6.03984      4.26134      8.38647        -0.077612     -0.049123     -0.033856
O	      8.30600      6.37989      8.24524         0.048074     -0.000011     -0.206499
O	      2.15334      6.34798      6.29899        -0.168448      0.026167      0.021506
O	      4.19335      8.44911      6.18765         0.019674      0.078920     -0.169377
O	      4.19169      6.44625      8.49171        -0.088860     -0.090297      0.219156
O	      6.31402      8.40592      8.47498         0.157989      0.074706     -0.018285
O	      6.15619      6.16439     10.49716        -0.068578     -0.012170      0.094366
O	      8.40557      8.63841     10.48072        -0.013516      0.134186     -0.070355
