# total energy = -228.76838259 eV
 
CRYSTAL
PRIMVEC
0.031685 6.249078 6.343083 
6.290917 0.026289 6.348886 
4.188607 4.164538 0.023291 
PRIMCOORD
36 1
Li	      6.32833      6.30030     12.65793        -0.125946      0.006117     -0.037516
Li	      2.16009      6.21962      8.39026         0.082870     -0.016515     -0.000466
Li	      6.35655      8.33120     10.60223        -0.057238      0.005573     -0.015246
Li	      6.27458      6.29647      4.37411        -0.019176      0.080472      0.073085
Li	      8.34312      6.25489      6.37188        -0.012713      0.013643      0.066943
Li	      6.28695      4.24429      6.34760         0.035912     -0.000782     -0.054845
Li	      4.19625      8.32813      4.27790         0.096473      0.000124     -0.049634
Li	      4.23472      6.23234      6.36544         0.031128     -0.001873      0.004886
Li	      4.16746      4.21984      8.42842        -0.058546      0.033246     -0.074036
Ti	      6.31182      2.20125      8.33631         0.013962      0.009129     -0.503446
Ti	      4.35219      4.18557      4.35419         0.414712      0.137021      0.234927
V	      4.26301      8.35548      8.39635        -0.080238      0.095180     -0.133378
V	      8.35278      4.17572      4.32459         0.004914     -0.340881      0.052526
Fe	      8.33713      6.30714     10.66331        -0.079099     -0.343171     -0.039088
Fe	      6.33107      6.24433      8.38990        -0.053388     -0.091914      0.322642
Co	      8.39748      4.19784      8.42311        -0.019537     -0.134738      0.101356
Cu	      8.39431      8.32005     12.65177        -0.083214      0.068282      0.009980
Ni	      2.16019      4.16978      6.34065         0.043530     -0.117869     -0.074943
O	      2.06121      2.08312      2.05167         0.045481      0.508584      0.040146
O	      4.21182      4.15802      2.21337        -0.428450      0.013341     -0.071494
O	      4.16493      2.17184      4.06040         0.011350     -0.524075      0.081629
O	      6.26962      4.17628      4.27079        -0.940578     -0.005602      0.012335
O	      6.14037      2.05964      6.54054        -0.041618     -0.009285      0.439001
O	      8.38927      4.08905      6.28263        -0.026608      0.213466      0.078079
O	      2.22281      4.24560      4.22484         0.010269     -0.074315      0.149780
O	      4.18099      6.13924      4.11815         0.023828      0.020397     -0.029966
O	      4.20248      4.17755      6.19559         0.106508      0.024266     -0.175088
O	      6.31841      6.28185      6.48296         0.010408     -0.036687     -0.109353
O	      6.30012      4.11750      8.47099         0.384665     -0.058518     -0.012988
O	      8.43745      6.29001      8.57062         0.042529     -0.331856     -0.030979
O	      2.12839      6.26813      6.25822         0.031541      0.181299      0.062328
O	      4.30461      8.34657      6.59972        -0.066548     -0.033649      0.042600
O	      4.25970      6.36048      8.59220        -0.005731     -0.091811     -0.074962
O	      6.22727      8.28536      8.45982         0.119247      0.138039      0.125691
O	      6.28425      6.23576     10.48717         0.568819      0.017772     -0.050836
O	      8.40093      8.31653     10.67139         0.020481      0.647591     -0.359672
