# total energy = -229.20377373 eV
 
CRYSTAL
PRIMVEC
0.014090 6.247122 6.418090 
6.088819 0.027075 6.405036 
4.088989 4.185547 -0.011558 
PRIMCOORD
36 1
Li	      4.07302      2.13410      2.21642        -0.013214      0.039646      0.026956
Li	      4.01710      0.11517      4.28817        -0.047724      0.084715     -0.015411
Li	     10.16385      6.31863      8.55622        -0.048834      0.018796      0.009595
Li	      2.08102      2.04651      4.27688         0.078483      0.005737     -0.004424
Li	      4.05577      2.12438      6.33051        -0.035732      0.037038     -0.078996
Li	      6.11577      4.18550      6.39736         0.004587      0.046451      0.018322
Li	      8.15811      6.28302     10.62983         0.021759     -0.028074     -0.009203
Li	      4.09999      6.22665      6.35812         0.011753     -0.028801     -0.023833
Li	      4.11112      4.15037      8.51793         0.045645     -0.042471     -0.019038
Ti	     10.04858      4.31735      6.36713        -0.400090      0.082939      0.059841
Ti	      6.19730      8.30424      6.42416         0.229160     -0.114686     -0.151092
V	      4.01507      8.23458      4.26574         0.288142     -0.090172     -0.003136
V	      6.09516      6.26306      8.55032         0.005067     -0.122933     -0.064294
Fe	      2.14783      0.12772      2.15582        -0.035123     -0.209262     -0.024721
Fe	      4.09639      4.20238      4.24533        -0.084677      0.173823     -0.143514
Co	      6.14032      8.38679     10.66496         0.106595     -0.175275     -0.069561
Cu	      8.12792      2.13977      6.38952         0.103646     -0.062800      0.219915
Cu	      8.10036      4.14438      8.51550        -0.007632     -0.010769     -0.036403
O	      2.07057      2.06377      1.98789        -0.034722      0.235692      0.017152
O	      4.07015      4.21238      2.03927         0.170789      0.010504     -0.051855
O	      4.16743      2.26407      4.21779        -0.661749     -0.186485      0.042556
O	      6.09441      4.20245      4.10560         0.081182      0.431302      0.041588
O	      6.12863      2.01428      6.38554        -0.023585     -0.086399      0.053193
O	      8.22037      4.31178      6.31643         0.310637      0.175525     -0.148926
O	      2.00355      4.12487      4.47021         0.030182      0.055620      0.211503
O	      4.08001      6.25093      4.24137        -0.024026      0.016952      0.023013
O	      4.00028      4.19133      6.29531        -0.169927     -0.048033      0.169047
O	      6.08403      6.36364      6.58619         0.022288      0.095404      0.005058
O	      6.11298      4.24198      8.63643        -0.150904     -0.072189      0.052809
O	      7.93153      6.20196      8.60593         0.060397      0.095612      0.046443
O	      1.98332      6.08709      6.59021         0.013833     -0.178387     -0.044368
O	      4.15432      8.44030      6.34799        -0.154819     -0.101326      0.028386
O	      4.18469      6.25158      8.59478         0.002915     -0.004629      0.009429
O	      6.17038      8.30411      8.44999         0.041204      0.068997      0.001170
O	      6.10598      6.19221     10.73987         0.008157     -0.128753      0.056770
O	      8.15182      8.31924     10.82719         0.256334      0.016691     -0.203971
