# total energy = -228.96586884 eV
 
CRYSTAL
PRIMVEC
0.009837 6.364373 6.147837 
6.268751 0.013761 6.143998 
4.193890 4.255102 -0.005320 
PRIMCOORD
36 1
Li	      6.36398      6.41341     12.23504         0.018308      0.007712     -0.000763
Li	      2.11863      8.41775      6.13173        -0.006233      0.027014      0.004231
Li	      6.29830      8.43986     10.14211         0.006387      0.048370      0.057359
Li	      2.12437      2.18450      4.09737        -0.018393     -0.042866     -0.038299
Li	      4.03551      4.21485      4.10608        -0.023672     -0.004837      0.009600
Li	      8.30515      6.33818     10.23771         0.007701      0.001049     -0.030781
Li	      6.27839      8.51816      6.20560        -0.010201      0.032757     -0.026289
Li	      8.16542      8.46527      8.22426         0.043202      0.053417     -0.004412
Li	      6.32614      6.63996      8.21937        -0.016787     -0.033369      0.018587
Ti	      4.22747      6.26696      2.06644         0.155372     -0.014547      0.058437
Ti	      4.09861      6.39399      6.11723        -0.259587     -0.052844      0.047201
V	      4.22388      6.32359     10.22050        -0.067129      0.063007      0.020078
V	      6.25637      4.26823      6.13419         0.224018      0.011032      0.020674
Fe	      8.30834      6.44298      6.13693        -0.021464     -0.003027     -0.009482
Fe	      0.13015      4.34905      4.08799        -0.158856     -0.110885     -0.061222
Co	      2.12806      4.24704      2.06416        -0.038439     -0.077611     -0.109283
Ni	      6.28316     10.54058      8.22386        -0.006435      0.070585      0.097332
Ni	      4.22450      2.16584      2.05158        -0.152870      0.040276     -0.010341
O	      1.97321      2.02456      2.04338        -0.113714      0.071972     -0.013452
O	      4.14840      4.31183      2.06671        -0.072163      0.138061     -0.021875
O	      4.18952      1.94455      4.14429        -0.006256      0.095118      0.076586
O	      6.42726      4.22514      4.16820         0.000662     -0.071706     -0.125321
O	      6.20448      2.17605      6.25025        -0.050761     -0.013435      0.038476
O	      8.32482      4.35256      6.10862         0.251695      0.093569      0.055422
O	      2.04108      4.24819      4.03765         0.166459      0.019626     -0.010191
O	      4.17203      6.43789      4.11187        -0.014520     -0.025303     -0.063875
O	      4.25282      4.30334      6.11229        -0.411665      0.001266     -0.020487
O	      6.25624      6.29271      6.17383         0.068331      0.079023      0.032224
O	      6.39812      4.08860      8.17513        -0.007541     -0.036214      0.194956
O	      8.50141      6.45007      8.12768         0.021528      0.022822      0.051942
O	      2.25131      6.35722      6.14333         0.185256      0.004072     -0.137772
O	      4.20185      8.32912      6.10298         0.030184     -0.115191     -0.045187
O	      4.17470      6.42407      8.17678         0.084151     -0.063001     -0.062624
O	      6.21815      8.57122      8.19089         0.135217     -0.176677      0.012154
O	      6.22854      6.32341     10.23954         0.078935      0.121490     -0.006581
O	      8.49210      8.75007     10.23070        -0.020720     -0.160726      0.002977
