# total energy = -92.35629286 eV
 
CRYSTAL
PRIMVEC
2.113999 4.241007 2.114048 
2.160575 -4.287410 2.160579 
4.279259 -0.000027 -4.279327 
PRIMCOORD
16 1
Li	      2.29535     -0.01945      2.10580        -0.008922     -0.136376      0.590001
Li	      2.30862     -2.08087      0.04042         0.158326     -0.295512     -0.061680
Li	      4.42789     -0.02111     -0.02437         0.411542     -0.145233      0.093933
Li	      4.39573     -2.20525     -2.16598         0.138189     -0.066274      0.105836
Mn	      0.24417     -0.00144      0.00993        -4.282181     -0.009787     -0.133711
Mn	      2.26773      2.05591      0.03608        -0.052805      2.129315     -0.838994
Ni	      2.34693     -0.00125     -2.09262        -0.430386     -0.054692     -1.295190
Ni	      4.44462      2.05600     -2.14013        -0.848344      0.900658      0.241728
O	      6.76421     -0.02256      0.00077         0.213994     -0.274590      0.254082
O	      4.23627      2.16008     -0.02385        -0.517305     -0.630529      0.225733
O	      4.39980     -0.02413     -2.36444         0.495486     -0.059403      0.728449
O	      4.40685     -0.17126      2.31677         0.368216     -0.776822     -0.310984
O	      4.42360     -2.20669      0.16269         0.103109      0.170463      1.079365
O	      2.18597      2.30851      2.06631         0.960858     -0.819643     -0.675395
O	      2.08282      0.12473     -0.00724         1.988222     -0.194235      0.381652
O	      2.33261     -2.35591      2.21371         1.302001      0.262659     -0.384824
