# total energy = -231.37996765 eV
 
CRYSTAL
PRIMVEC
-0.021194 6.313335 6.181570 
6.249853 -0.020289 6.180820 
4.184377 4.226340 -0.031304 
PRIMCOORD
36 1
Li	      6.24070      0.01120      6.16151        -0.028513      0.004243      0.029947
Li	      2.13210      0.05520      2.05603         0.051535      0.098958      0.039287
Li	     10.39900      6.34744      8.23478         0.042783     -0.019904      0.034693
Li	      2.09991      2.09484      4.08897        -0.043109     -0.028949      0.013845
Li	      8.35741      6.30514      6.18159        -0.021515      0.011462      0.075999
Li	     10.33695      8.40144     10.21860        -0.023939     -0.071777     -0.037779
Li	      8.34930      6.32718     10.24709         0.049917     -0.059748     -0.053017
Li	      8.42863      8.33883      8.28153         0.067074     -0.029622     -0.053713
Li	      6.23957      6.28574      8.24006        -0.035294     -0.083177     -0.029915
Ti	      8.22691      4.31034      8.21494        -0.231562      0.351844     -0.236794
Ti	      4.21173      4.27419      4.03974         0.272899      0.480451     -0.059522
V	      6.21343      8.30486     10.20482         0.452981     -1.286733      0.243548
V	      6.22554      8.43101      6.16500         0.086821     -0.133115     -0.127343
Fe	      2.07529      8.37939      6.15531         0.064254      0.059094      0.114913
Fe	      4.17918      6.32706      6.25919         0.025209     -0.149346     -0.089229
Co	      6.25044      4.25299      6.20110         0.008643      0.029418     -0.050895
Co	      4.15684      2.11281      2.08219        -0.074798     -0.252221     -0.028251
Cu	      4.14251      6.26571     10.21924         0.076111     -0.326822      0.084301
O	      2.17088      2.18744      1.96379        -0.686193      0.167490     -0.034969
O	      4.09975      4.16823      2.13183         0.066737      0.389236      0.192246
O	      4.27409      2.26781      4.24270         0.301807      0.333812     -0.137404
O	      6.23059      4.14137      4.10374        -0.772101     -0.287876      0.017291
O	      6.34399      2.14097      6.01219        -0.107044     -0.109208     -0.307377
O	      8.36986      4.11706      6.22119        -0.042325      0.018790      0.378807
O	      2.19638      4.18520      4.06353        -0.102850     -0.009079      0.240290
O	      4.21697      6.15144      4.17305        -0.028330     -0.190594     -0.036232
O	      4.08016      4.26831      6.16648         0.130664     -0.061277     -0.018171
O	      6.18069      6.40165      6.17657         0.214715      0.272332     -0.036409
O	      6.33862      4.16389      8.25496         0.196746      0.057399      0.071381
O	      8.36169      6.14589      8.19400        -0.066759     -0.384882      0.065371
O	      2.11803      6.27079      6.19143        -0.203628     -0.145806     -0.076850
O	      4.17896      8.36769      6.05443        -0.142308      0.201415      0.023516
O	      4.13831      6.41792      8.21558         0.053742     -0.333518     -0.342004
O	      6.17364      8.43847      8.30638         0.570774      0.078541      0.216624
O	      6.08613      6.45107     10.26835         0.462431      1.384921      0.046249
O	      8.20236      8.31098     10.31369        -0.585575      0.024248     -0.132434
