# total energy = -233.04062563 eV
 
CRYSTAL
PRIMVEC
-0.006102 6.324306 6.234135 
6.409436 -0.026193 6.254371 
4.259333 4.216378 -0.004075 
PRIMCOORD
36 1
Li	      2.16051      6.30721      8.32189        -0.003130     -0.051985     -0.048734
Li	      6.21348      2.36519      8.38415        -0.057406     -0.004480      0.041473
Li	      8.27087      4.34439      8.36190         0.052085      0.027520     -0.045086
Li	      6.35359      4.25762      6.47058        -0.004767      0.089008     -0.035182
Li	      6.37969      4.18711     10.18534        -0.018762      0.005290      0.018543
Li	      8.53934      6.31359     10.18749        -0.030313      0.004422      0.101108
Li	      4.30116      6.29066      6.22242        -0.012416     -0.041526     -0.046526
Li	      4.52175      4.06356      8.36212        -0.050166      0.018731      0.045019
Li	      6.53992      6.09426      8.39395         0.015557      0.069819      0.036915
Ti	      8.42377      2.07001      6.23415        -0.009500      0.107642     -0.206261
Ti	      2.25811      4.16908      6.27655         0.410837      0.058280     -0.017351
V	      4.27397     10.51381      6.25758        -0.309974      0.228330     -0.249874
V	      4.25704      8.30299      8.28011        -0.015403     -0.328117      0.365122
Fe	      6.30429      6.30928      4.10281         0.114770      0.038071     -0.115697
Fe	      4.27317      4.28397      4.05896        -0.051772     -0.019858      0.039498
Co	      8.55203     10.47960     10.39531         0.013314      0.007077      0.032085
Co	      6.46133      8.41685     10.31895         0.110931     -0.042401     -0.108008
Co	      8.53008      6.29448      6.39667        -0.104634     -0.109207      0.056056
O	      6.38058      4.23046      8.32800        -0.014699      0.011855      0.050262
O	      2.27673      2.06279      2.02726         0.060828     -0.049810      0.009561
O	      4.28972      3.98347      2.08071         0.050295     -0.137802     -0.121853
O	      4.21278      2.16536      4.12458         0.049255      0.039559     -0.054499
O	      6.35275      4.23971      4.17854        -0.009881     -0.032326      0.011612
O	      6.52485      2.04987      6.28218         0.077998     -0.528775      0.200143
O	      8.63580      4.04157      6.27364        -0.467601     -0.283458     -0.120604
O	      2.19969      4.15770      4.26778        -0.009670     -0.023604      0.039197
O	      4.37461      6.21419      4.10832        -0.053660      0.039174      0.014124
O	      4.12790      4.24619      6.18050        -0.279242     -0.023406      0.017639
O	      6.40322      6.46565      6.13796        -0.028185      0.239326      0.032221
O	      8.53232      6.30671      8.29037         0.011749      0.041539     -0.116744
O	      2.03700      6.32617      6.24911         0.735279      0.109032     -0.013046
O	      4.24490      8.42027      6.30133         0.032832      0.534435      0.024513
O	      4.25766      6.50885      8.35441        -0.007223      0.221197     -0.133553
O	      6.28006      8.45546      8.19476        -0.070734     -0.072679     -0.010991
O	      6.32419      6.41006     10.54568        -0.032254     -0.121164      0.080489
O	      8.53612      8.40073     10.56275        -0.094339     -0.019708      0.228431
