# total energy = -226.73154383 eV
 
CRYSTAL
PRIMVEC
-0.009129 6.345132 6.309148 
6.278353 0.014392 6.285742 
4.198683 4.227548 -0.003507 
PRIMCOORD
36 1
Li	      0.02470      6.30923      6.30148         0.019120     -0.022647     -0.051099
Li	      4.12697      6.40941      2.33832        -0.000414      0.049003     -0.010372
Li	      6.10396      6.42932      4.21194         0.015550      0.013020     -0.026203
Li	      4.13842      4.39265      4.24786         0.030741     -0.038329      0.027620
Li	      4.16437      2.19391      6.32527         0.056255      0.065672     -0.047273
Li	      4.20348      8.26879      4.17292        -0.027048      0.012564     -0.002958
Li	      2.26777      6.32596      4.17401        -0.091229      0.006815      0.002768
Li	      8.43334      8.34588      8.38361         0.017621     -0.059980     -0.006326
Li	      6.33178      6.32219      8.37124         0.006298     -0.015011      0.013426
Ti	      4.20236      8.46350      8.39662         0.075860     -0.003807      0.127036
Ti	      8.34236      4.42251      8.49311        -0.078906      0.348839      0.267563
V	      6.28840      8.34187     10.52895        -0.148532      0.015065     -0.168856
V	      6.20830      4.34199      6.31522         0.030407     -0.196224     -0.044226
Fe	      8.37643      8.46619     12.53100         0.088455     -0.036123      0.172381
Fe	      6.25685      4.27010      2.10368        -0.036569      0.028254      0.108800
Cu	      2.15966      4.19846      6.08039        -0.032880      0.025089     -0.104475
Ni	      8.38227      4.23459      4.20908         0.065151     -0.032177      0.004448
Ni	      4.17058      6.29981      6.20336         0.005845     -0.006644      0.162456
O	      2.18965      2.11005      2.07867         0.015980      0.019190     -0.047874
O	      4.15271      4.10656      2.06875        -0.025876     -0.076879      0.006504
O	      4.28589      2.07630      4.07174        -0.029878      0.090171     -0.092161
O	      6.30074      4.09986      4.18002        -0.096416      0.010577     -0.036277
O	      6.33240      2.26982      6.16949         0.072904      0.052071      0.012928
O	      8.30945      4.15252      6.33134         0.034108      0.047412      0.125219
O	      2.05892      4.23063      4.03240        -0.005257      0.014134     -0.276133
O	      4.18335      6.34565      4.24284         0.003168     -0.018729     -0.101509
O	      4.30995      4.20682      6.34551        -0.167391     -0.055764      0.006445
O	      6.31489      6.13980      6.24994         0.074525      0.146072      0.004926
O	      6.38669      4.23514      8.27067         0.114776     -0.004214      0.045612
O	      8.38899      6.23126      8.36773        -0.001480     -0.323017      0.023376
O	      2.07197      6.45119      6.44515        -0.111298     -0.057347     -0.012668
O	      4.13455      8.43123      6.42974         0.071579      0.092590      0.052111
O	      4.10354      6.47581      8.41639         0.008771      0.103349     -0.037716
O	      6.19675      8.56718      8.51823        -0.046843     -0.027971     -0.066126
O	      6.24428      6.56004     10.51451         0.079324     -0.067990     -0.008892
O	      8.28617      8.51311     10.54186         0.013582     -0.097035     -0.022474
