# total energy = -225.76982119 eV
 
CRYSTAL
PRIMVEC
0.017088 6.250657 6.247404 
6.216919 0.011065 6.253210 
4.156789 4.183114 -0.004705 
PRIMCOORD
36 1
Li	      6.30817     10.23294      8.38228        -0.001672      0.062057      0.020317
Li	      4.39520      8.29192      8.35622         0.009939     -0.007155      0.001838
Li	      6.22877      8.35746     10.21541         0.023419     -0.001619      0.091655
Li	      6.22835      2.24526      8.36888        -0.037581     -0.047768      0.019092
Li	      8.10234      4.18166      8.38541        -0.060354      0.018735     -0.028375
Li	      2.07327      2.11468      4.15958         0.024200      0.034767     -0.008365
Li	      6.25086      4.14726     10.24596        -0.036285     -0.018874      0.011595
Li	      6.29480      8.27052      6.42585         0.055002     -0.059234     -0.069740
Li	      6.19353      6.33073      8.28438         0.030855     -0.019555     -0.050183
Ti	      4.18866      4.15785      0.16895        -0.055337      0.013891      0.390379
Ti	      8.25390      6.18390     10.25861         0.073479     -0.324646     -0.376528
V	      2.05342      2.09732      0.13310        -0.023294      0.069318      0.082968
V	      4.12058      0.05057      4.10387        -0.135680      0.216801     -0.298574
Fe	      4.22910      4.10985      4.09429        -0.023677     -0.000556     -0.125206
Fe	      4.30401      6.28349      6.31963        -0.154336      0.067171      0.046303
Ni	      8.24447      6.31939      6.29534        -0.022628      0.021080      0.030579
Ni	      6.21058      4.20006      6.31744         0.071647     -0.026514     -0.106579
Ni	      8.28374      8.39071      8.35293         0.040420     -0.057466     -0.071182
O	      2.04781      2.12314      1.86180        -0.037546      0.039502      0.087228
O	      4.18165      4.16139      2.03235         0.055663     -0.009356     -0.359543
O	      4.13922      2.07998      4.21809         0.073330     -0.209376     -0.076828
O	      6.25600      4.20222      4.19791         0.189745     -0.016014     -0.071202
O	      6.23603      1.96766      6.28234         0.094062     -0.146943      0.000907
O	      8.37538      4.16167      6.21309         0.165378     -0.107715      0.000744
O	      2.16545      4.30409      4.11335        -0.115858      0.271408     -0.007210
O	      4.03019      6.20697      4.25880        -0.115835      0.062062     -0.096581
O	      4.18262      4.20080      6.14026        -0.196686      0.092330      0.062193
O	      6.20047      6.26183      6.20068         0.097545      0.106503     -0.019206
O	      6.15063      4.17082      8.29091         0.128685      0.059124      0.150041
O	      8.28901      6.29030      8.40823         0.011562     -0.135631      0.440674
O	      2.02115      6.36114      6.15948        -0.045043     -0.061143      0.002898
O	      4.07997      8.39810      6.25063        -0.023514      0.106859      0.001417
O	      4.13043      6.28267      8.26609         0.012405      0.061229      0.209346
O	      6.30544      8.33935      8.31452        -0.084266     -0.047830      0.025659
O	      6.26709      6.23625     10.55423         0.017695      0.024599      0.007782
O	      8.30738      8.39570     10.54633        -0.005435     -0.030039      0.081685
