# total energy = -232.24752459 eV
 
CRYSTAL
PRIMVEC
0.017817 6.229788 6.292609 
6.350632 0.012892 6.297106 
4.237474 4.159681 0.005357 
PRIMCOORD
36 1
Li	      2.07492      0.03669      2.07067         0.019158      0.019244     -0.034992
Li	      4.19192      2.09184      2.11672        -0.030539     -0.043954     -0.025779
Li	      4.24088      6.24262     10.43473        -0.026035      0.007286     -0.017551
Li	      4.23296      6.12397      2.18971         0.039308     -0.017377     -0.001759
Li	      2.28425      4.14459      2.11294         0.017755     -0.044524      0.030432
Li	      4.21940      4.18086      4.00997        -0.001904     -0.001700     -0.044182
Li	      2.19658      6.21135      4.19136         0.043872     -0.016969      0.012660
Li	      2.11901      4.17441      6.28964         0.025036     -0.048033     -0.021181
Li	      6.32231      6.28964      8.37482        -0.026245      0.018679     -0.055056
Ti	      6.47694      4.21854     10.40943         0.333097     -0.045130      0.087392
Ti	      8.38670      8.38273      8.47048        -0.202970      0.200281     -0.120836
V	      8.43877      6.22811      6.35200         0.051968     -0.047204     -0.146056
V	      6.38829      4.15686      6.32836        -0.069390      0.004168      0.019231
Fe	      4.40554     10.34075      6.45436         0.002402      0.084634     -0.028535
Fe	      6.24970      2.04855      4.15161         0.022372      0.027121      0.023272
Fe	      2.13227      2.04471      4.03239         0.053565     -0.011836      0.390072
Co	      2.13108      2.07538      0.10466        -0.029286      0.015197      0.089625
Ni	      4.20218      6.26552      6.30077         0.174365     -0.073747      0.051381
O	      2.13338      2.05181      2.17597        -0.019428      0.032748     -0.222710
O	      4.24856      4.14027      2.01511        -0.023747      0.004334      0.142219
O	      4.25045      2.08632      4.28746        -0.059457     -0.043659      0.081135
O	      6.33628      4.11982      4.34207         0.015529     -0.008489      0.030566
O	      6.34585      2.04024      6.19788        -0.203006      0.007205      0.045212
O	      8.38033      4.16069      6.37219         0.097943      0.135977     -0.007146
O	      1.99564      4.13285      4.15773        -0.267682      0.076526      0.012164
O	      4.31677      6.37613      4.24248        -0.082938      0.098107     -0.154817
O	      4.33426      4.13079      6.40583        -0.084892     -0.110917      0.092908
O	      6.38749      6.21483      6.19716        -0.015623      0.008304     -0.020161
O	      6.25842      4.19503      8.46090        -0.038007      0.019970      0.096847
O	      8.49090      6.38619      8.30319        -0.004383      0.050746      0.072412
O	      2.12976      6.31511      6.28633        -0.065793     -0.008310     -0.093307
O	      4.20100      8.35524      6.16603         0.161250      0.066482     -0.272893
O	      4.25347      6.11464      8.33123         0.006931     -0.284375      0.137865
O	      6.45754      8.30225      8.50504         0.187799      0.002189     -0.056741
O	      6.34852      6.20230     10.57758        -0.008795     -0.072014     -0.018362
O	      8.50649      8.32546     10.40293         0.007769     -0.000956     -0.073329
