# total energy = -234.36163630 eV
 
CRYSTAL
PRIMVEC
0.021974 6.302318 6.293460 
6.247939 0.031301 6.284532 
4.185783 4.216473 -0.000057 
PRIMCOORD
36 1
Li	      2.13965      6.27148      8.29530        -0.009619      0.007816     -0.004214
Li	      4.19775      0.05630      4.21617        -0.001319     -0.034258      0.049063
Li	      8.33965      4.36245      8.28464         0.008652     -0.023383      0.004847
Li	      8.33706      6.33943      6.37549        -0.004562      0.017840     -0.034010
Li	      6.26419      4.25885      6.33319        -0.000195      0.010250      0.019737
Li	      2.10966      6.31291      4.20102        -0.009212      0.021844      0.012885
Li	      2.17932      4.34521      6.29782         0.023467      0.022171     -0.022555
Li	      4.07265      6.20707      6.32599        -0.031390     -0.029449     -0.014441
Li	      6.32323      6.32985      8.30962         0.010661     -0.015200     -0.023737
Ti	      6.32508      2.29852      4.18245         0.163889      0.239798      0.038304
Ti	      6.30796      4.32746     10.44551         0.161572      0.115928     -0.072342
V	     10.37831      6.34455      8.38759        -0.124786     -0.266971     -0.228637
V	      6.29859      6.31879      4.31749        -0.025738     -0.004601     -0.016451
Fe	      4.17429      4.20036      0.06313        -0.017019      0.292056      0.218826
Fe	      2.10004      2.09832      0.02134        -0.125454      0.005309      0.049169
Fe	      4.17191      8.21373      8.33576         0.085695      0.168130     -0.045460
Co	      4.13189      4.22946      4.29129        -0.059311      0.040246      0.030533
Co	      4.15261      4.25336      8.21246         0.002715      0.128777      0.102005
O	      2.08447      2.06759      2.28532        -0.006364     -0.025363      0.081602
O	      4.16782      4.27713      2.11544         0.046682      0.087749      0.118875
O	      4.18177      2.09542      4.09935         0.012092      0.086760      0.010466
O	      6.26138      4.17816      4.21449         0.085960     -0.255870     -0.011179
O	      6.19464      2.07305      6.18042        -0.111099      0.150117     -0.096853
O	      8.45038      4.12511      6.31263        -0.062048      0.173470     -0.026831
O	      1.99318      4.09844      4.20587        -0.187057      0.021665      0.000624
O	      4.27080      6.43635      4.18323         0.001890     -0.143180     -0.034983
O	      4.14707      4.23378      6.24536         0.027171     -0.018658     -0.039096
O	      6.33605      6.25855      6.05159        -0.031171      0.007501      0.100971
O	      6.30262      4.18060      8.52697        -0.043159     -0.010774      0.043733
O	      8.45589      6.40260      8.38728         0.154745     -0.007223      0.046997
O	      1.98756      6.39789      6.29229         0.072714     -0.186514     -0.029199
O	      4.26856      8.45416      6.25876         0.056800     -0.136782      0.014305
O	      4.20028      6.34920      8.32342         0.021127     -0.237717      0.048450
O	      6.19031      8.40647      8.57843        -0.026207     -0.011845     -0.014213
O	      6.28348      6.22609     10.53443         0.016636     -0.162864     -0.173445
O	      8.30754      8.46241     10.41783        -0.076758     -0.026774     -0.103746
