# total energy = -230.27953100 eV
 
CRYSTAL
PRIMVEC
0.020069 6.217479 6.308636 
6.375036 0.015522 6.313280 
4.241823 4.139600 0.018808 
PRIMCOORD
36 1
Li	      0.07377      6.20656      6.26308         0.049984     -0.007185      0.047517
Li	      4.27046      2.06856      2.22644         0.072460      0.025332      0.044316
Li	      4.24548      0.15203      4.17348         0.039896      0.016970     -0.024975
Li	      6.27641      2.06558      4.22238         0.013428      0.013297     -0.020236
Li	      2.24659      2.07442      4.21143         0.009962      0.029926     -0.021829
Li	      2.12176      6.19981      4.23154        -0.032895     -0.020693     -0.016980
Li	      2.16479      4.17667      6.30861        -0.039615      0.029399      0.011883
Li	      4.25715      6.17104      6.29599         0.008526      0.009905      0.028506
Li	      8.45884      8.28882      8.39667        -0.004684     -0.012170      0.002660
Ti	      2.24804      8.21292      6.23870         0.058664     -0.173686     -0.105828
Ti	      2.24702      4.14459      2.17600         0.204825     -0.135862      0.214536
V	     10.58112      8.24531     10.52709         0.025326     -0.076680      0.042854
V	      6.27018      6.32302      8.43510         0.006757      0.062539     -0.056368
Fe	      6.55281     10.25857      8.51958        -0.092674      0.102601      0.052479
Fe	     10.57555      6.20405      8.45151         0.071423      0.055294     -0.055133
Fe	      6.31499      4.16256      6.17507         0.075483      0.002063      0.002976
Cu	      4.25221      4.13305      4.29018        -0.071686      0.134959      0.019238
Ni	      4.26335      2.08678      6.25975         0.012973     -0.034580      0.037031
O	      2.13823      2.13595      2.03224         0.039798      0.041104     -0.011376
O	      4.16623      4.09682      2.16357        -0.262202     -0.053722     -0.122897
O	      4.25092      2.19192      4.29188         0.004067     -0.144524     -0.171880
O	      6.49546      4.19074      4.17451         0.148562      0.015878      0.020508
O	      6.45137      2.14484      6.35287         0.056379     -0.030534     -0.064568
O	      8.43031      4.09126      6.44625         0.013109     -0.087329      0.048068
O	      1.95934      4.14609      4.07108        -0.164912     -0.014872     -0.135498
O	      4.20653      6.22342      4.16380        -0.040306      0.118041      0.023625
O	      4.36189      4.13931      6.28132        -0.015792      0.081577      0.059677
O	      6.39584      6.16605      6.51556        -0.020561      0.036740     -0.068152
O	      6.44366      4.22884      8.38421        -0.036799     -0.018730      0.001723
O	      8.39030      6.12888      8.37584        -0.015688     -0.078495      0.082426
O	      2.10679      6.32030      6.49799         0.022913      0.184105     -0.131602
O	      4.12355      8.32145      6.26312        -0.185088     -0.004496     -0.058365
O	      4.29874      6.23483      8.41883         0.096254      0.023038     -0.008581
O	      6.39349      8.27489      8.41484        -0.012570     -0.061551      0.016212
O	      6.36821      6.15167     10.29502        -0.010776     -0.018361      0.125367
O	      8.56735      8.25988     10.66482        -0.024539     -0.009298      0.192667
