# total energy = -229.98726161 eV
 
CRYSTAL
PRIMVEC
0.015780 6.277587 6.459933 
6.257763 0.019950 6.456529 
4.177908 4.188340 0.007094 
PRIMCOORD
36 1
Li	      4.30047     10.35777      6.52401        -0.017915      0.020608     -0.050418
Li	      2.08015      6.30473      8.49899         0.064962     -0.044309      0.002473
Li	      4.16633      8.43717      8.48171         0.003766     -0.009155      0.021458
Li	      8.33154      4.21116      8.62011        -0.009296      0.034890     -0.024119
Li	      0.08507      4.15085      4.33392         0.008033      0.024878      0.011816
Li	      2.10596      6.24883      4.36108        -0.026734      0.013532      0.064460
Li	      6.16628      8.47686      6.53690         0.041024     -0.006968      0.040107
Li	      4.21984      4.16976      8.58383        -0.010717      0.034829      0.012567
Li	      6.31630      6.23248      8.61873         0.008399     -0.031210      0.027561
Ti	      4.22114      6.28939     10.65316         0.095203     -0.011674     -0.522581
Ti	      6.33920      8.33911     10.55672        -0.032795     -0.086660     -0.549558
V	      3.99692      4.25440      4.23418         0.254674     -0.133491      0.079387
V	      8.30072      6.29953      6.54091         0.111045      0.132603     -0.026902
Fe	      2.21547      8.28015      6.55070        -0.144098      0.190028     -0.136037
Fe	      6.26412      2.12717      8.61975        -0.138350     -0.036874     -0.085331
Fe	      6.25649      4.23589      6.58811        -0.096661      0.002098     -0.091097
Cu	      1.98834      2.17263      4.19970         0.064311      0.126581     -0.021255
Cu	      4.17855      6.32926      6.50284         0.112954     -0.096639      0.104933
O	      2.02182      2.12537      2.01881         0.126185     -0.016532      0.198729
O	      4.21255      4.22635      2.33245        -0.024496      0.016387     -0.085176
O	      4.32071      2.09228      4.43160         0.040035     -0.137436     -0.042638
O	      6.26854      4.04138      4.40021         0.040599      0.020301      0.072457
O	      6.22458      2.13778      6.47955         0.132525     -0.000439     -0.127353
O	      8.26375      4.20072      6.34210         0.071025     -0.082127      0.029584
O	      2.23654      4.21285      4.34657        -0.321146     -0.162223     -0.047115
O	      4.13198      6.18065      4.16040        -0.018858      0.158553     -0.037547
O	      4.25236      4.24563      6.30984        -0.108526     -0.104733      0.006908
O	      6.30094      6.22181      6.51083        -0.140450      0.150943     -0.105876
O	      6.25120      4.14228      8.53638         0.003954      0.013209      0.094738
O	      8.42708      6.30133      8.46511        -0.040836     -0.093441      0.153240
O	      2.17184      6.34735      6.44977        -0.116967     -0.161875     -0.016638
O	      4.15165      8.31011      6.45734         0.153597      0.174478     -0.029316
O	      4.15525      6.30715      8.86827        -0.016772      0.014471      0.509063
O	      6.30109      8.37096      8.77150         0.017468     -0.003299      0.537359
O	      6.15801      6.39708     10.79470        -0.036298      0.091311      0.015927
O	      8.26606      8.49783     10.85585        -0.048842     -0.000614      0.016190
