# total energy = -230.36884861 eV
 
CRYSTAL
PRIMVEC
0.003935 6.326228 6.278744 
6.282744 -0.016481 6.299207 
4.189217 4.231734 -0.011796 
PRIMCOORD
36 1
Li	      2.17082      0.05857      2.18706         0.051941      0.050779      0.039535
Li	      4.12813      2.07233      2.15610        -0.026201     -0.008092      0.025998
Li	      8.31780      4.22542      4.13904        -0.021163      0.010219     -0.001611
Li	      2.04092      2.13542      4.11509        -0.071293      0.079410     -0.020417
Li	      4.18239      4.26497      4.20069         0.013843      0.014362     -0.009071
Li	      4.16423      2.14795      6.30499        -0.008450      0.024935     -0.009433
Li	      4.24810      8.35027      4.15318         0.101549     -0.043397      0.042501
Li	      4.21765      6.28402      6.22713        -0.005465     -0.004292     -0.044211
Li	      4.19317      4.21234      8.37930         0.006755      0.005305     -0.009976
Ti	      4.14460      4.15834      0.07966         0.056277     -0.277064      0.289420
Ti	      6.15505      6.31562      8.36400        -0.475446     -0.027784     -0.137014
V	      2.10008      2.11374      0.01819         0.261040     -0.007086      0.102652
V	      6.16732      2.14772      4.12988        -0.247463      0.080497      0.123098
Fe	      6.12716      4.27545      6.22629         0.094571     -0.135563     -0.004514
Fe	      2.22515      6.26859      4.12714        -0.055186      0.061995      0.182264
Fe	      2.20640      4.17144      6.26729        -0.077177     -0.003640     -0.022294
Ni	      4.18660      6.37866      2.13192         0.017364      0.018475      0.001850
Ni	      2.09688      4.20586      2.15375         0.051397     -0.044337     -0.093964
O	      2.06205      2.14308      2.00754         0.076589     -0.111116     -0.294007
O	      4.18397      4.28648      1.93530         0.054598     -0.042500     -0.296058
O	      4.39610      2.09128      4.19780         0.118077     -0.019258     -0.007852
O	      6.32043      4.10379      4.26393        -0.002840     -0.033188     -0.083230
O	      6.29128      2.08290      6.24925        -0.027519      0.016671     -0.089626
O	      8.44994      4.13415      6.27754        -0.050487      0.066415     -0.080755
O	      2.09637      4.29955      4.17709         0.017212     -0.086333      0.047363
O	      4.14287      6.37078      4.15722         0.047678      0.019423      0.066864
O	      4.22995      4.20814      6.30878         0.057700      0.006106      0.012182
O	      6.32136      6.24906      6.39927        -0.033043      0.018275      0.208355
O	      6.31460      4.28369      8.30743        -0.126798      0.127146     -0.003217
O	      8.34946      6.27420      8.44416        -0.148687      0.136592     -0.075594
O	      1.97434      6.40214      6.23507        -0.086648      0.033023     -0.048174
O	      4.21972      8.59515      6.25698        -0.083633      0.216708      0.024529
O	      4.33595      6.32376      8.39126         0.460776     -0.009135      0.013735
O	      6.32247      8.31751      8.45589         0.017003     -0.085068      0.064760
O	      6.31488      6.39610     10.46099         0.014806     -0.026206     -0.065660
O	      8.21329      8.35307     10.57661         0.028326     -0.022278      0.151571
