# total energy = -91.54422578 eV
 
CRYSTAL
PRIMVEC
2.134524 4.282182 2.134572 
2.181552 -4.329035 2.181556 
4.320805 -0.000027 -4.320874 
PRIMCOORD
16 1
Li	      2.38209     -0.01983      2.10493         0.002092     -0.174809      0.752359
Li	      2.37439     -2.07989      0.06193         0.200965     -0.391608     -0.076406
Li	      4.51428     -0.02152     -0.02484         0.534575     -0.178498      0.123522
Li	      4.48150     -2.24828     -2.20824         0.176669     -0.086718      0.128471
Mn	      0.33279     -0.00192      0.01007        -5.870553     -0.081266     -0.158728
Mn	      2.33315      2.05399      0.05796        -0.007664      2.714341     -0.987583
Ni	      2.43463     -0.00173     -2.09155        -0.511011     -0.071429     -1.635706
Ni	      4.55252      2.05408     -2.16071        -1.065606      1.091692      0.285991
O	      6.89619     -0.02299      0.00079         0.141826     -0.309807      0.317394
O	      4.31893      2.20223     -0.02432        -0.561329     -0.761451      0.244862
O	      4.48565     -0.02459     -2.41057         0.606904     -0.020884      0.966901
O	      4.49284     -0.17461      2.36197         0.473337     -0.874001     -0.386368
O	      4.50991     -2.24974      0.16586         0.123418      0.158793      1.240066
O	      2.22862      2.35355      2.10663         1.213188     -1.038540     -0.792237
O	      2.12346      0.12717     -0.00738         2.974990     -0.307730      0.442292
O	      2.37812     -2.40188      2.25691         1.568201      0.331916     -0.464831
