# total energy = -235.05279578 eV
 
CRYSTAL
PRIMVEC
0.010698 6.274088 6.407176 
6.347664 0.038700 6.379428 
4.248796 4.181507 0.008440 
PRIMCOORD
36 1
Li	      4.23317      4.17995      0.32731        -0.013590      0.046264     -0.003571
Li	      6.10754      4.22086      2.24635        -0.014839     -0.036787      0.025494
Li	      4.20183      2.29065      2.18436         0.025801     -0.023408      0.043596
Li	      4.31915      6.04321      2.24613         0.034147     -0.013499      0.036059
Li	      2.37328      4.13056      2.24029         0.006859     -0.046243      0.023365
Li	      2.04358      2.05612      4.10315        -0.023170     -0.004267     -0.047041
Li	      4.31491      4.19845      4.07424         0.010876     -0.000622      0.053285
Li	      6.33290      4.22994      6.28423        -0.025126     -0.026434     -0.059739
Li	      4.28411      8.31863      4.27153         0.030942     -0.053419      0.004175
Ti	      8.37046      2.21039      6.53546        -0.329802      0.126722      0.581669
Ti	      6.20167      8.40995      6.33116        -0.096904     -0.011657      0.041511
V	      4.29050      2.12388      6.39015         0.025524     -0.046283     -0.030797
V	      6.36929      6.18647      8.53830        -0.006297      0.220842     -0.282608
Fe	      8.38151      4.23628      4.20066         0.086141      0.063381     -0.076129
Fe	      2.23194      6.28025      4.21902        -0.030327     -0.076640     -0.073498
Fe	      4.25208      6.25725      6.35086         0.121076     -0.055249      0.103573
Fe	      8.48986      8.38397      8.55532        -0.092607      0.012523     -0.051253
Co	      6.34205      2.18140      4.26680        -0.045667     -0.106384     -0.471693
O	      2.11638      2.10844      1.94960        -0.050364     -0.002636     -0.483958
O	      4.24213      4.16731      2.19404        -0.044622      0.012803     -0.005105
O	      4.23022      2.00647      4.41671         0.424541      0.072472     -0.032361
O	      6.46462      4.18331      4.22200        -0.034847     -0.511826      0.162555
O	      6.45808      2.14925      6.35468         0.135528      0.041730      0.183996
O	      8.51167      4.14556      6.29574         0.018762     -0.015154     -0.012138
O	      2.06900      4.25924      4.45091        -0.072723      0.047697      0.174270
O	      4.15565      6.29263      4.30905         0.006966      0.039614     -0.078384
O	      4.13119      4.09880      6.40779        -0.060289     -0.066102     -0.082210
O	      6.41999      6.39201      6.49285        -0.003322      0.093211     -0.093360
O	      6.30318      4.40232      8.48431         0.132236      0.000250      0.022517
O	      8.39485      6.24460      8.49833         0.131528     -0.110609      0.125852
O	      2.09727      6.27433      6.32028        -0.050004     -0.064232      0.009413
O	      4.29450      8.39192      6.42007         0.191309      0.065606     -0.015562
O	      4.38901      6.34054      8.54291         0.026753      0.045087      0.149577
O	      6.43338      8.26310      8.41944        -0.059719     -0.059677     -0.093857
O	      6.42328      6.39176     10.46016        -0.056408      0.411239      0.315233
O	      8.54916      8.40158     10.74728        -0.298360      0.031686     -0.062875
