# total energy = -232.98021547 eV
 
CRYSTAL
PRIMVEC
0.034524 6.409233 6.225817 
6.355545 0.038656 6.221139 
4.250107 4.282373 0.013636 
PRIMCOORD
36 1
Li	      4.30581     10.58952      6.25412        -0.095028     -0.102407     -0.082513
Li	      4.28140      8.59915      8.20529        -0.083023     -0.034552     -0.041566
Li	      2.06377      4.17107      2.09791        -0.059378     -0.037222     -0.115050
Li	      6.37156      6.42047      4.24650        -0.082902     -0.016323     -0.008265
Li	      6.39563      4.39101      6.21300         0.091872      0.154047      0.054242
Li	      0.10956      4.25696      4.21232        -0.031450      0.086547     -0.014284
Li	      6.19298      8.45758      6.27733        -0.040238     -0.014726     -0.066540
Li	      4.43878      6.59331      6.17831         0.015763     -0.023857      0.040739
Li	      6.36208      6.45583      8.24267        -0.068551     -0.064396      0.097791
Ti	      4.07376      4.34824      4.17927        -0.620797      0.357499     -0.027701
Ti	      4.34624      4.32460      8.19530         0.674496      0.458041      0.165060
V	      4.34713      6.46991     10.38528        -1.799121      0.601259     -0.205240
V	      6.37048      2.17566      8.28926         0.274219      0.047010      0.338201
Fe	      2.32611      8.49345      6.21408         0.271654      0.318194     -0.044233
Fe	      2.17702      6.40802      8.23117         0.167205      0.327481     -0.057203
Fe	      6.35420      2.19720      4.21797         0.338692     -0.628409     -0.157607
Fe	      8.31487      6.37223      6.27123        -0.163512     -0.327951      0.100131
Cu	      1.98391      6.26859      4.29000        -0.343327     -0.096053     -0.097531
O	      2.04537      2.09369      1.97989        -0.124359     -0.034957      0.087109
O	      4.34268      4.28524      2.23580        -0.053108      0.135254      0.190626
O	      4.22838      2.19958      4.21125         1.237041      0.901968     -0.092101
O	      6.54688      4.36126      4.07201        -1.695233     -1.197216      0.130581
O	      6.32311      2.15430      6.27030        -0.019982      0.090689     -0.881624
O	      8.46107      4.32755      6.14121         0.010876      0.033230      0.805237
O	      2.25267      4.22485      4.13002         0.548077     -0.043436     -0.010843
O	      4.33978      6.25198      4.10178        -0.044742     -0.194750     -0.079557
O	      4.29531      4.23295      6.21920        -0.010580     -0.046238      0.030399
O	      6.45185      6.44219      6.27819         0.039690      0.011450     -0.027196
O	      6.24258      4.24809      8.33271        -0.300490     -0.151342     -0.066275
O	      8.55859      6.59237      8.28507        -0.028727      0.064796     -0.035588
O	      2.12872      6.51902      6.28736        -0.034155     -0.062170     -0.011942
O	      4.21278      8.57355      6.22458         0.052905     -0.047398      0.066962
O	      4.24449      6.32051      8.32788        -0.140505     -0.296930     -0.532932
O	      6.56404      8.66948      8.34812        -0.174804     -0.166590      0.557785
O	      6.15670      6.48509     10.29274         3.273791      1.370533      0.039688
O	      8.54579      8.77017     10.35407        -0.982269     -1.371074     -0.048760
