# total energy = -233.75802845 eV
 
CRYSTAL
PRIMVEC
0.020079 6.230674 6.329785 
6.360723 0.022004 6.328523 
4.256951 4.169632 -0.002130 
PRIMCOORD
36 1
Li	      6.40171      6.24149     12.49975         0.043240     -0.007227     -0.048568
Li	      4.35344      8.25323      8.51321         0.011625     -0.005994      0.039299
Li	      4.33793      0.17823      4.18635        -0.011947      0.020729     -0.007281
Li	      6.27149      8.21768     10.50456         0.012698     -0.001721     -0.035274
Li	      2.17516      2.09504      4.24516        -0.002964     -0.024510      0.026643
Li	      4.24901      2.08551      6.21369        -0.012815      0.000450      0.024579
Li	      2.08403      6.20873      4.27119        -0.027981      0.019455      0.035203
Li	      6.33680      8.33531      6.43444        -0.097480      0.021964      0.072124
Li	      4.27027      6.24199      6.29724        -0.011950     -0.009436      0.001186
Ti	      2.21045      8.25090      6.24971         0.138695     -0.408103     -0.282103
Ti	      2.25518      4.22310      2.09986         0.163681      0.205373      0.010814
V	      2.20100      6.22735      8.48485        -0.085229     -0.270388      0.027864
V	      6.36471      4.27478      6.23506        -0.058040      0.182240     -0.151723
Fe	      4.23834      6.24789      2.15069         0.049085     -0.023106     -0.057387
Fe	      4.21372      4.03099      4.30831         0.042599      0.188947     -0.056816
Fe	      4.26984      8.34757      4.25796         0.039006     -0.063450      0.039913
Fe	      8.48389      8.29649      8.47066        -0.066079     -0.008872     -0.028187
Ni	      6.28770      6.33921      8.48807        -0.012758     -0.015015     -0.060588
O	      2.17142      2.15706      1.99281         0.062426      0.068438     -0.011610
O	      4.21869      4.14243      2.16647        -0.262766      0.002989     -0.000644
O	      4.22465      2.16323      4.24824        -0.025204     -0.114702      0.005401
O	      6.28266      4.19945      4.25025         0.026183      0.034609      0.182589
O	      6.50711      2.29619      6.39312         0.055185      0.043503     -0.082204
O	      8.44437      4.12914      6.43066         0.018568     -0.033427      0.102034
O	      2.13710      4.15155      4.06002        -0.049615      0.010585     -0.136648
O	      4.25379      6.29166      4.15549         0.010033     -0.025339      0.092426
O	      4.39929      4.15947      6.26858         0.029513      0.027467      0.041374
O	      6.38828      6.08099      6.39614         0.004003     -0.184342     -0.138749
O	      6.50414      4.23600      8.39599         0.070179     -0.082442     -0.002030
O	      8.45480      6.18269      8.38158         0.112893     -0.370099     -0.001687
O	      2.06841      6.34657      6.46673         0.067902      0.378210     -0.135909
O	      4.14672      8.32608      6.23752        -0.196689     -0.012124      0.030430
O	      4.16336      6.18121      8.47347         0.042259      0.128077     -0.018766
O	      6.37849      8.35640      8.40913        -0.130820      0.338079      0.066853
O	      6.36763      6.14601     10.50450         0.036409     -0.019295      0.124369
O	      8.55420      8.29250     10.67332         0.016152      0.008478      0.333073
