# total energy = -234.87394487 eV
 
CRYSTAL
PRIMVEC
0.002401 6.362320 6.281763 
6.368771 0.032329 6.251341 
4.261211 4.236688 0.006436 
PRIMCOORD
36 1
Li	      4.27097      8.48527      8.30205        -0.010929      0.000480      0.047661
Li	     10.39507      6.40382      8.36095         0.048325      0.024878      0.012667
Li	      8.46329      4.53058      8.31904        -0.041013     -0.061870      0.036124
Li	      8.52969      6.35830      6.46640         0.000932      0.021975     -0.062310
Li	     10.54134      8.52802     10.45882         0.008722      0.017466     -0.005034
Li	      8.47322      6.49270     10.26646        -0.004419      0.002662      0.056914
Li	      4.21478      6.45573      6.28460        -0.026209      0.014580     -0.036801
Li	      8.49731      8.26940      8.44738         0.033658      0.065334      0.007817
Li	      6.61886      6.35430      8.39781        -0.023295     -0.027514      0.072017
Ti	      2.10371      2.18099      4.07669        -0.095245      0.143737     -0.180853
Ti	      4.20340      4.26975      4.12493        -0.148312      0.062700     -0.085606
Ti	      6.35570      4.23061      6.42830        -0.089120      0.013146      0.822644
Mn	      6.31746      8.43618      6.39284         0.012034     -0.044879      0.032015
V	      4.36997      6.31667     10.36960         0.146408      0.020615     -0.109767
Cr	      6.38353     10.59173      8.37152         0.122056      0.004874     -0.039392
Cu	      6.47660      8.41786     10.41087         0.030660     -0.052782     -0.063155
Ni	      4.26129      4.21730      0.04661        -0.006874      0.102066      0.059596
Ni	      2.19140      8.46096      6.30452        -0.018948     -0.023235      0.079092
O	      2.11912      2.03817      2.17785        -0.003775     -0.019723      0.249973
O	      4.35255      4.24366      2.18634         0.035228     -0.037909      0.197657
O	      4.11986      2.18499      4.14607        -0.247802      0.063169      0.019218
O	      6.36740      4.35711      4.14448        -0.042852      0.151935     -0.027274
O	      6.44580      2.23911      6.14736        -0.049522      0.079949      0.087160
O	      8.39557      4.26298      6.08685        -0.094072      0.077729      0.027893
O	      2.27613      4.12610      4.17621         0.142732     -0.121348      0.028691
O	      4.39805      6.20373      4.17368         0.081500     -0.126643     -0.001414
O	      4.39936      4.21627      6.08631         0.085013      0.013753     -0.114772
O	      6.35765      6.22661      6.11361         0.003225     -0.050587     -0.065614
O	      6.38464      4.25846      8.21729         0.025999      0.012574     -0.766741
O	      8.49604      6.38697      8.37810         0.025688     -0.011670     -0.007241
O	      2.09291      6.39052      6.38178         0.042522     -0.148433      0.034815
O	      4.22220      8.53217      6.30481         0.173670     -0.070371     -0.025114
O	      4.13818      6.41378      8.56511        -0.087815      0.028778      0.010481
O	      6.40578      8.60022      8.45142        -0.047078     -0.040774     -0.167568
O	      6.22816      6.37504     10.50435        -0.100794     -0.088919     -0.128115
O	      8.54255      8.65668     10.47167         0.119702      0.004258      0.004337
