# total energy = -233.28824279 eV
 
CRYSTAL
PRIMVEC
-0.017944 6.569943 6.150575 
6.153160 -0.023157 6.156710 
4.087028 4.368570 -0.000681 
PRIMCOORD
36 1
Li	      0.08554      0.03999      0.07205         0.052864     -0.010102      0.091594
Li	      2.00035      2.06060      0.14164         0.003415     -0.024535      0.056870
Li	      4.08079      8.73963      8.05314        -0.044152      0.094523     -0.044466
Li	      6.15876      2.19104      8.12343         0.019481     -0.012977     -0.005686
Li	      6.03571      4.38534      6.23418        -0.065456      0.004603     -0.028359
Li	      6.19321      8.76365      6.29996        -0.011610     -0.015822     -0.015628
Li	      4.07104      6.49893      6.27377         0.041433      0.007206     -0.186504
Li	      4.09339      4.38737      8.04351         0.007326     -0.110244     -0.037799
Li	      6.13588      6.54463      8.07194         0.111644      0.029050     -0.085819
Ti	      6.04021      2.12981      4.04391         0.142584      0.120895     -0.036162
Ti	      8.16978      4.41756      8.03324         0.253600     -0.008558      0.344379
Ti	      4.07508      8.77911      4.25343         0.289833     -0.372874      0.603171
Mn	      2.05770      2.20821      4.11274        -0.098883      0.132353      0.177656
V	      8.15903     10.81670     10.18623        -0.054011      0.401543     -0.799718
Cr	      2.07051      6.57761      4.17934         0.213915     -0.120566      0.028837
Cu	      1.99184      6.51496      8.08484        -0.258865      0.019671     -0.388494
Cu	      4.07044      4.41167      4.13259        -0.089020      0.096070      0.230070
Cu	      4.10217      2.33663      6.22208        -0.117981      0.253224      0.121287
O	      2.04337      2.46415      2.19071         0.027080      0.188376     -0.051122
O	      4.06105      4.41434      2.15507        -0.068298      0.003404     -0.223211
O	      4.06150      1.87095      3.97840         0.007321     -0.923390     -0.136177
O	      6.10383      4.18146      3.97867         0.959998     -0.345258      0.086984
O	      6.06746      2.18569      5.98518         0.164906     -0.040409     -0.094939
O	      8.19401      4.36342      6.16687        -0.108669     -0.156140     -0.930515
O	      2.00938      4.53915      4.09638        -0.602187      0.209565     -0.114087
O	      4.12449      6.81720      4.15261        -0.113453      0.353015     -0.028732
O	      4.09038      4.30424      6.03661         0.075148      0.035521      0.288785
O	      6.23169      6.52522      6.00049        -0.084832     -0.043117     -0.050397
O	      6.27042      4.41708      8.31124        -0.055366      0.088361     -0.104242
O	      8.24411      6.36704      8.34956        -0.038597     -0.041684      0.181901
O	      2.04455      6.62254      6.15175         0.044304      0.044416     -0.048264
O	      4.09102      8.82125      6.05490        -0.042449      0.049324     -0.405971
O	      3.98484      6.43758      8.26881         0.351184     -0.177849      1.571532
O	      6.14901      8.56476      8.35323        -0.033111     -0.038525      0.195222
O	      6.17127      6.53345     10.28578        -0.857843     -0.010543     -0.070439
O	      8.18290      8.71374     10.28492        -0.021254      0.321472     -0.091559
