# total energy = -242.96064698 eV
 
CRYSTAL
PRIMVEC
0.083363 6.195298 6.399128 
6.476347 0.058366 6.423568 
4.342545 4.171051 0.014026 
PRIMCOORD
36 1
Li	      4.37374      4.09427      0.12682        -0.009816     -0.034973     -0.009591
Li	      2.16063      2.07901      0.02473        -0.001682      0.000757      0.004952
Li	      4.43247      8.34144      8.46707        -0.010192      0.041733     -0.033046
Li	      6.52611      2.11427      8.50231        -0.009186      0.019393     -0.032999
Li	      2.21423      2.13544      4.23714         0.018886     -0.009470      0.020719
Li	      4.25884      4.16320      4.26711        -0.020599     -0.050008     -0.015188
Li	      0.12127      4.09824      4.27016         0.030618     -0.002898     -0.009175
Li	      2.18487      4.16665      6.39252        -0.015944     -0.047295      0.022581
Li	      8.68798      8.33843      8.53354        -0.036192     -0.047314     -0.027485
Ti	      8.62402      4.17153      4.30834        -0.136373      0.030068     -0.010387
Ti	      4.32602      6.34257      6.28236         0.029432      0.275526     -0.285603
Ti	      6.51629      6.28857      8.56529         0.172742      0.028950     -0.108628
Mn	      8.71594      6.30274     10.71196        -0.017983     -0.014330     -0.015445
Mn	      6.42508      2.16842      4.32275        -0.036040      0.041156      0.054643
Mn	      6.46596      4.13932      6.48408        -0.034829     -0.029966      0.002974
V	      2.29961      4.00914      2.22117        -0.019072      0.194217     -0.044291
Co	      6.34237      4.24428      2.11747        -0.085940     -0.019344      0.014208
Cu	      4.35683      2.13898      6.41041        -0.024691      0.065910      0.066631
O	      2.17359      2.23050      2.11104         0.005533     -0.254095     -0.064867
O	      4.24473      4.18404      2.12155         0.075510      0.007235      0.029821
O	      4.31805      1.98441      4.41037         0.013542     -0.054970     -0.162569
O	      6.69123      4.26955      4.14431         0.092756      0.044797     -0.014762
O	      6.57633      2.26071      6.44974         0.212338     -0.000748     -0.008417
O	      8.56894      4.26118      6.36812        -0.024210     -0.094682     -0.041042
O	      2.25611      4.16115      4.10350        -0.036191      0.014221      0.129641
O	      4.37368      6.24077      4.44484         0.079434     -0.017866      0.226956
O	      4.49812      4.17644      6.43927         0.043084      0.068042      0.028830
O	      6.33780      6.12569      6.56665        -0.208770     -0.014382      0.122716
O	      6.70009      4.28777      8.59091        -0.037675      0.018671      0.017687
O	      8.55853      6.16189      8.48267        -0.013704      0.074242      0.124354
O	      2.38789      6.17808      6.48682         0.035392      0.019757      0.077988
O	      4.43906      8.16471      6.42887        -0.018757     -0.249326     -0.030070
O	      4.52059      6.23989      8.64906         0.039885     -0.009807     -0.009539
O	      6.58068      8.18201      8.52892         0.011414     -0.034136      0.013068
O	      6.44336      6.21304     10.57128        -0.089256     -0.071887     -0.063830
O	      8.72520      8.45205     10.68906         0.026533      0.112821      0.029165
