# total energy = -243.00641771 eV
 
CRYSTAL
PRIMVEC
0.009713 6.270507 6.330153 
6.323135 0.014515 6.325428 
4.218633 4.180406 0.006479 
PRIMCOORD
36 1
Li	     10.50730      4.16578      6.32721        -0.071050     -0.048382      0.007850
Li	      2.13063      6.26737      8.38439        -0.002976      0.021401     -0.014925
Li	      8.36051      4.24478      8.39453        -0.006626      0.015451     -0.023777
Li	      6.31712      6.31732      4.26293         0.022828      0.054637      0.016376
Li	      8.35666      6.19762      6.41941        -0.033699     -0.044361      0.044137
Li	      6.39672      4.29485      6.38094        -0.021436      0.075728      0.038583
Li	      6.37438      4.21864     10.49286         0.057681      0.017357     -0.015655
Li	      2.09725      6.24025      4.21224        -0.005761      0.004367     -0.028634
Li	      6.41713      6.22397      8.42226         0.026313     -0.002289      0.025171
Ti	      6.33917      2.01332      4.43263         0.071099     -0.291982      0.360268
Ti	      4.25180      4.28242      4.19217        -0.092360      0.262685     -0.088977
Ti	      2.08810      4.17836      6.28831        -0.097528     -0.116310     -0.105171
Mn	      8.41790      4.16837      4.28386        -0.013122     -0.014838      0.029235
Mn	      4.13853      2.08877      2.06910        -0.079360      0.029511     -0.010479
Mn	      4.26069      4.15162      8.42705         0.118744     -0.072547      0.018678
V	      6.35159      2.12726      8.39407        -0.058920      0.053244      0.020690
Co	      2.10342      8.31904      6.32424        -0.026947     -0.010090     -0.022870
Ni	      4.23845      6.29572      6.32337         0.074417      0.032007     -0.003712
O	      2.01199      2.11387      1.98378         0.104116     -0.020796     -0.003525
O	      4.16900      4.25486      2.24114         0.046153     -0.075777      0.139900
O	      4.33103      2.17835      4.18847         0.040538      0.040986      0.041641
O	      6.24442      4.08496      4.24495        -0.008232     -0.069985     -0.016709
O	      6.24607      2.06489      6.28411         0.016007     -0.040906     -0.431093
O	      8.40485      4.10652      6.16627        -0.013938      0.016232     -0.048179
O	      2.26432      4.18448      4.32675         0.115319      0.023255      0.141566
O	      4.29141      6.18379      4.19755         0.015409     -0.252886     -0.023956
O	      4.14107      4.23808      6.20995         0.004017     -0.115010     -0.070771
O	      6.29340      6.43841      6.33904         0.152613      0.152437     -0.003036
O	      6.22418      4.12960      8.43631        -0.037980      0.056285     -0.004893
O	      8.53888      6.37621      8.43382        -0.061899      0.029758      0.022573
O	      2.18507      6.20891      6.34245        -0.092047     -0.026386     -0.009042
O	      4.37246      8.36819      6.30415         0.105702      0.109627     -0.028571
O	      4.22257      6.17906      8.59178        -0.006705     -0.032037      0.034781
O	      6.46855      8.36488      8.40350        -0.026318      0.003189     -0.031970
O	      6.25977      6.41048     10.55674        -0.043362      0.257297      0.039037
O	      8.31437      8.35049     10.62678        -0.170691     -0.020874      0.005459
