# total energy = -244.77202549 eV
 
CRYSTAL
PRIMVEC
0.037480 6.151662 6.500841 
6.362097 0.010785 6.528019 
4.247558 4.124792 0.001142 
PRIMCOORD
36 1
Li	      8.62029      8.19554     12.83640        -0.024118      0.040262     -0.000131
Li	      4.26934      8.22735      8.55044         0.018163     -0.058783     -0.064954
Li	      6.55484      8.18228     10.88902         0.004774      0.020634     -0.022428
Li	      6.38122      4.05976      6.57753        -0.007440     -0.008352      0.073088
Li	     10.42557      8.23589     10.99503         0.009881      0.057063     -0.006682
Li	      8.50670      6.34439     10.83810        -0.051964     -0.062102     -0.012199
Li	      6.29136      8.24919      6.54844         0.012123     -0.001907      0.010432
Li	      4.21960      6.30882      6.48093        -0.026518     -0.000950     -0.024360
Li	      8.54951      8.18049      8.93452        -0.030887     -0.008002      0.019641
Ti	      2.31165      6.00127      8.59137         0.249628     -0.214246     -0.116200
Ti	      2.08450      4.05100      2.21849        -0.172609      0.012023      0.136141
Ti	      4.27553      4.08732      4.38683         0.061116      0.004770      0.207809
Mn	      6.43013      6.11278     12.93334         0.042751     -0.019947     -0.069344
Mn	      6.32248      6.19658      4.50920        -0.019873     -0.013635      0.049094
Mn	      4.29063      2.06438      6.53178        -0.017849      0.060533      0.106537
V	      6.36838      6.22013      8.71561        -0.040009      0.094610      0.222309
Co	      8.53190     10.21257     10.81386         0.068972      0.067310     -0.073966
Co	     10.58517      6.21298      8.73315        -0.051905     -0.037674     -0.014752
O	      2.09451      2.11649      2.18034        -0.042535      0.059543      0.002929
O	      4.23201      4.09260      2.27613        -0.050948      0.078277      0.003363
O	      4.20815      2.10357      4.32209        -0.008382      0.088864      0.086798
O	      6.28923      4.09221      4.12018        -0.258707     -0.037306     -0.093709
O	      6.25505      1.96623      6.60327        -0.042828     -0.036267      0.002992
O	      8.60216      4.19107      6.68331         0.006561      0.094775      0.065729
O	      2.28770      4.14855      4.15035         0.062376      0.003672     -0.147164
O	      4.24311      6.03882      4.34685        -0.031323     -0.035420     -0.067949
O	      4.33766      4.01803      6.28696        -0.039209     -0.040756     -0.239757
O	      6.54047      6.17901      6.67135         0.077579      0.010327     -0.002469
O	      6.51429      4.18304      8.67170         0.246240     -0.181401      0.013125
O	      8.46362      6.09303      8.73802         0.147759     -0.088324     -0.035087
O	      2.03752      6.18493      6.71442         0.058277     -0.059730      0.164767
O	      4.31167      8.35827      6.43749         0.016754      0.036037      0.051260
O	      4.18753      6.16499      8.59596        -0.243146     -0.023452     -0.039094
O	      6.42549      8.26071      8.63547        -0.014153      0.279213     -0.081774
O	      6.31368      6.21303     10.70678         0.110485     -0.002634     -0.140107
O	      8.49378      8.28680     10.87560        -0.019036     -0.077025      0.036111
