# total energy = -246.94199020 eV
 
CRYSTAL
PRIMVEC
-0.038460 6.505483 6.391984 
6.332701 0.017530 6.336382 
4.207708 4.284876 0.025444 
PRIMCOORD
36 1
Li	      2.09534      2.11371      0.09737        -0.004044     -0.037194      0.002666
Li	      6.27737      4.39988      2.29816        -0.008765      0.021092      0.010839
Li	      6.29803      2.27264      4.22308        -0.051234      0.016134      0.033676
Li	      0.15342      2.06817      2.11174         0.054239     -0.075431     -0.017440
Li	      6.27580      6.30104      4.23544        -0.023448      0.019993     -0.010304
Li	      4.33594      4.33253      4.21527         0.028224     -0.030956     -0.004916
Li	      6.27567      4.38203      6.26821        -0.030332      0.075445      0.037476
Li	      4.18531      8.59930      4.36760         0.061929     -0.003938      0.021366
Li	      4.29542      6.50505      6.33760         0.042405      0.020176     -0.030458
Ti	      6.36050      0.09584      6.32437         0.057380      0.215078      0.133409
Ti	      2.33048      6.46779      4.29588         0.663123     -0.204774      0.117192
Ti	      4.21244      4.38852      8.44845         0.141573     -0.001135     -0.141846
Mn	      8.33546      4.25613      4.30565         0.022090      0.053637     -0.079937
Mn	      2.00352      4.21979      2.15981        -0.187174      0.047939      0.023937
Mn	      4.20688      2.25035      6.20308        -0.074017      0.035264      0.043881
V	      6.26000      6.51095      8.50946         0.000635     -0.063204     -0.111710
Fe	      4.09895      2.20160      2.15425         0.241515     -0.112633     -0.056687
Co	      2.05080      4.32741      6.31669        -0.052559     -0.095348      0.007180
O	      2.16469      2.12887      2.13408        -0.082870      0.028571     -0.029110
O	      4.22642      4.22546      1.98706         0.014104      0.036590     -0.181738
O	      4.24160      2.18904      4.09444        -0.026363     -0.033668      0.108558
O	      6.46088      4.27510      4.31807         0.017071     -0.010311     -0.010015
O	      6.31691      1.95611      6.38878         0.071479     -0.329278     -0.064473
O	      8.51919      4.26991      6.29691         0.004574     -0.025094     -0.062601
O	      2.05930      4.55874      4.23934         0.038204      0.268396      0.038168
O	      4.14481      6.47551      4.28627        -0.686644      0.009006     -0.016901
O	      4.15302      4.37201      6.53715        -0.010239      0.014803      0.237339
O	      6.30077      6.50931      6.53465        -0.023412      0.064598      0.030640
O	      6.16677      4.46068      8.47802        -0.218156      0.082285     -0.016124
O	      8.37045      6.58954      8.59444        -0.003084      0.172009      0.121133
O	      1.95786      6.53040      6.20600        -0.076790     -0.044564     -0.172489
O	      4.21711      8.74922      6.52432         0.010301      0.089900     -0.052690
O	      4.15701      6.40926      8.59059         0.007342     -0.122869      0.057688
O	      6.34297      8.53020      8.51766         0.031964     -0.062703      0.006658
O	      6.14137      6.45210     10.64269         0.054172     -0.002534      0.083218
O	      8.38879      8.47385     10.46455        -0.003189     -0.015283     -0.055584
