# total energy = -91.06313500 eV
 
CRYSTAL
PRIMVEC
2.144786 4.302769 2.144835 
2.192040 -4.349848 2.192044 
4.341578 -0.000028 -4.341647 
PRIMCOORD
16 1
Li	      2.42592     -0.02002      2.10435         0.009943     -0.190423      0.825866
Li	      2.40758     -2.07925      0.07284         0.220562     -0.437522     -0.081272
Li	      4.55779     -0.02173     -0.02508         0.591680     -0.192853      0.136189
Li	      4.52469     -2.26995     -2.22952         0.191378     -0.093136      0.138028
Mn	      0.37772     -0.00217      0.01015        -6.718784     -0.131345     -0.167370
Mn	      2.36618      2.05288      0.06906         0.024772      2.982906     -1.037110
Ni	      2.47894     -0.00197     -2.09086        -0.549580     -0.080058     -1.793776
Ni	      4.60694      2.05297     -2.17099        -1.165156      1.169612      0.300457
O	      6.96265     -0.02322      0.00080         0.091449     -0.311035      0.333607
O	      4.36056      2.22345     -0.02455        -0.556927     -0.815175      0.247186
O	      4.52888     -0.02483     -2.43381         0.661834     -0.000107      1.084522
O	      4.53614     -0.17629      2.38473         0.518522     -0.898651     -0.414307
O	      4.55338     -2.27143      0.16746         0.127851      0.146087      1.287913
O	      2.25010      2.37624      2.12694         1.330775     -1.136828     -0.829247
O	      2.14393      0.12839     -0.00745         3.551278     -0.369047      0.470985
O	      2.40104     -2.42503      2.27866         1.670403      0.357574     -0.501670
