# total energy = -243.54138407 eV
 
CRYSTAL
PRIMVEC
0.001424 6.252853 6.577174 
6.329824 0.038963 6.538618 
4.246443 4.169891 -0.000348 
PRIMCOORD
36 1
Li	     10.52228     10.37280     13.02655        -0.006920     -0.010197     -0.033678
Li	      8.47773      2.22192      6.47464         0.027670     -0.038922     -0.023684
Li	      8.49148      4.16947      4.46800         0.032600      0.019387     -0.003544
Li	      8.33149      4.30083      8.79969         0.002889     -0.084443      0.031283
Li	      4.15072      4.21030      4.41833        -0.009818     -0.030772      0.052940
Li	      6.37908      4.20466     10.86630        -0.004434      0.037757      0.001512
Li	      2.15576      6.16697      4.27196        -0.059661     -0.030144      0.070252
Li	      2.06915      4.20370      6.34560        -0.040806      0.007560     -0.017629
Li	      4.35029      4.12698      8.80296        -0.028611      0.063672      0.031272
Ti	      2.05896      0.03240      2.11097        -0.202801      0.054043     -0.288202
Ti	      4.17304      2.14979      2.10798        -0.110199      0.101104     -0.194102
Ti	      6.55143      8.28034     10.98407         0.579681     -0.152839      0.062248
Mn	      8.49121      6.27103      6.61228        -0.001446      0.071450     -0.031958
Mn	      6.39082      4.16286      6.63517         0.002021     -0.003550     -0.022679
Mn	      2.10643      2.17092      4.34301         0.067396      0.011716      0.073729
V	      6.37394      6.24047      8.81167        -0.085511      0.072788      0.060981
Fe	      4.22047      6.23983      6.49121         0.027266      0.034702      0.064690
Cu	     10.37041      6.32414      8.94934        -0.077371     -0.119115      0.081730
O	      2.23696      1.98287      2.13581         0.181683     -0.090572     -0.083909
O	      4.38725      4.10073      2.06598         0.171414      0.022478      0.030688
O	      4.12758      2.12906      4.17168         0.108355     -0.006419     -0.137523
O	      6.36830      4.21470      4.14358        -0.019895     -0.074072     -0.121751
O	      6.34571      2.16824      6.28557         0.114736      0.052126     -0.146196
O	      8.29598      4.19402      6.54895        -0.074810     -0.090411     -0.008345
O	      2.13142      4.03934      4.37735        -0.003130      0.104495     -0.017200
O	      4.37946      6.29005      4.53476        -0.041294     -0.055001     -0.188507
O	      4.42202      4.24790      6.56277         0.095900     -0.041790      0.023021
O	      6.28791      6.23037      6.67678        -0.016022     -0.076461      0.027952
O	      6.31169      4.31958      8.75539         0.025586     -0.234082      0.099144
O	      8.31270      6.32578      8.77100         0.151165     -0.011211      0.056158
O	      2.26207      6.15005      6.79253        -0.139055      0.088417      0.276073
O	      4.25216      8.27852      6.77025        -0.009469      0.048591      0.288338
O	      4.22989      6.37501      8.70735        -0.059230      0.052011     -0.059615
O	      6.23177      8.38951      8.92060        -0.029593      0.119521      0.043653
O	      6.33056      6.40327     10.91511         0.007231      0.216855     -0.016238
O	      8.35531      8.36244     10.92305        -0.575521     -0.028673      0.019096
