# total energy = -242.60982660 eV
 
CRYSTAL
PRIMVEC
-0.026421 6.414608 6.372946 
6.371987 -0.033567 6.380280 
4.259245 4.292349 -0.033766 
PRIMCOORD
36 1
Li	      6.36996      4.27839      2.09946         0.058676     -0.012203     -0.021325
Li	      4.26689      6.46667      2.29831        -0.013276      0.061325     -0.017894
Li	      2.05653      4.28427      2.32606        -0.094908      0.004519     -0.027121
Li	      6.19634      6.59459      4.25319         0.018911     -0.006742     -0.002404
Li	      0.17648      4.09095      4.21026        -0.004061     -0.013560     -0.023103
Li	      2.29150      6.20712      4.23725         0.020636     -0.033097      0.020820
Li	      2.11947      4.20816      6.18381        -0.014627     -0.018701     -0.016612
Li	      4.32033      6.43406      6.10272         0.112662     -0.000273     -0.008180
Li	      6.39486      6.35705      8.42806        -0.035407     -0.005788     -0.059900
Ti	      2.13873      8.45308      6.49281         0.101166     -0.188599      0.308745
Ti	      4.16669      6.38075     10.53556        -0.133086     -0.015402     -0.178396
Ti	      8.51022      8.43104      8.44526         0.147541     -0.138092     -0.010349
Mn	      4.31982      8.54260      8.46904         0.056267     -0.034674     -0.034089
Mn	      6.36311      8.52272     10.56478        -0.003008     -0.037783      0.005524
Mn	      6.33668      4.30203      6.41307        -0.043348      0.026458      0.024938
V	      4.26495      4.30807      0.02522         0.050841     -0.040980     -0.056998
Fe	      8.29981      6.45507      6.36176         0.188906     -0.042545     -0.009965
Ni	      4.09661      4.42855      4.16086         0.192291     -0.188574      0.083657
O	      2.15820      2.14048      1.92839         0.021982     -0.009333     -0.358574
O	      4.27063      4.26439      1.88372        -0.007938      0.035219      0.017476
O	      4.26837      2.00963      4.35124        -0.085705     -0.019140      0.009826
O	      6.54165      4.25595      4.26508         0.113792      0.064583     -0.083161
O	      6.47013      2.04758      6.38503        -0.005261      0.002675      0.028842
O	      8.57004      4.25390      6.30233        -0.055017      0.016211     -0.004524
O	      2.16395      4.26556      4.21092        -0.120909     -0.038655      0.002727
O	      4.26705      6.34873      4.21411         0.018131      0.146002     -0.034874
O	      4.19415      4.17906      6.47005         0.006527      0.046605      0.068839
O	      6.44145      6.41304      6.37786        -0.256602      0.013187     -0.000987
O	      6.13747      4.29319      8.51685        -0.140801     -0.035046      0.043523
O	      8.47545      6.54497      8.37965        -0.027407      0.182937      0.066099
O	      1.98067      6.58696      6.31870         0.035430      0.236606      0.013489
O	      4.06974      8.66950      6.31492        -0.125679     -0.005901     -0.008163
O	      4.24887      6.35781      8.66514         0.032335     -0.028916      0.263022
O	      6.49880      8.57832      8.47719         0.079172      0.014377     -0.011529
O	      6.19235      6.42190     10.89716        -0.125366     -0.051353     -0.019582
O	      8.49513      8.69870     10.56592         0.037139      0.114650      0.030202
