# total energy = -248.41480267 eV
 
CRYSTAL
PRIMVEC
0.058144 6.343108 6.417127 
6.364379 0.028366 6.447763 
4.263816 4.269917 -0.002111 
PRIMCOORD
36 1
Li	      6.36763      4.25995      2.22845        -0.022619     -0.000138      0.020057
Li	      6.31807      2.19765      4.26841        -0.030084     -0.023838      0.013000
Li	      8.53687      4.35479      8.57600         0.025207      0.006583     -0.016857
Li	      6.39315      6.36367      4.37018         0.016267      0.006764      0.050910
Li	      4.38107      4.22199      4.30250         0.040859      0.003912      0.037787
Li	      8.51163      6.41380      6.45180         0.023545     -0.017688     -0.004202
Li	      6.34417      4.34686      6.39810        -0.037085      0.031400      0.017289
Li	      8.54088      6.37795     10.65217         0.002570     -0.034241     -0.024921
Li	      6.47400      6.39635      8.49722         0.032193     -0.010327     -0.045146
Ti	      8.37702      2.15105      6.48439        -0.192671      0.044255      0.231499
Ti	      8.32121      4.37052      4.32027        -0.240984      0.329118      0.057721
Ti	      6.53240      4.28028     10.60341         0.462979      0.106672     -0.159438
Mn	      4.30783      2.18962      2.24625        -0.061331      0.074876      0.066179
Mn	      2.22630      4.18513      6.39945         0.010279      0.022782     -0.040787
Mn	      4.34227      6.32548      6.39350         0.023877     -0.043116     -0.021731
V	      8.47447      8.50317      8.62122        -0.010504     -0.027407     -0.021302
Fe	      0.08872      6.35313      6.41320         0.019958     -0.061126      0.013482
Fe	      4.22144      6.30495      2.18821         0.084636      0.010858     -0.101131
O	      2.09548      2.16542      1.93834        -0.054683     -0.022572     -0.319869
O	      4.28010      4.33957      2.05810         0.018963     -0.052980      0.078599
O	      4.25635      1.99132      4.35495        -0.023011     -0.319916      0.047327
O	      6.49888      4.27540      4.29108         0.290912     -0.001753      0.032573
O	      6.48448      2.15843      6.50566         0.267105      0.067779     -0.022481
O	      8.50360      4.13262      6.31236        -0.064033     -0.140038     -0.106446
O	      2.01480      4.26513      4.24539        -0.426922     -0.023357     -0.034655
O	      4.29956      6.50352      4.16359         0.014302      0.111809      0.076678
O	      4.30630      4.38864      6.51718         0.057357     -0.030129      0.019821
O	      6.24465      6.36473      6.44138        -0.035399      0.001005      0.026364
O	      6.32345      4.20372      8.70513         0.011144      0.040648      0.199007
O	      8.62704      6.49369      8.53675        -0.072617      0.042637     -0.020496
O	      2.31438      6.47771      6.36307        -0.007923      0.142934     -0.020665
O	      4.22339      8.37366      6.33954        -0.119879     -0.017569     -0.086450
O	      4.32022      6.27971      8.74945        -0.034055     -0.027699      0.151492
O	      6.51209      8.50164      8.59168         0.032667     -0.007513      0.003059
O	      6.34229      6.20486     10.82185        -0.039521     -0.210342     -0.127348
O	      8.59174      8.57592     10.79014         0.038499      0.027719      0.031079
