# total energy = -247.64105756 eV
 
CRYSTAL
PRIMVEC
0.020804 6.411372 6.229474 
6.331479 0.013983 6.236138 
4.254502 4.311855 -0.023695 
PRIMCOORD
36 1
Li	      6.40293      6.34418     12.27620        -0.073042     -0.013099      0.070309
Li	      8.53809      8.52663     12.31341         0.001519      0.002707     -0.003456
Li	      4.36277      6.39900     10.46439         0.044208      0.004183      0.074061
Li	      6.34522      2.09461      4.25924        -0.005111     -0.019491      0.047347
Li	      6.39003      6.46271      4.17963        -0.009922      0.007336     -0.084734
Li	      6.40130      4.32841      6.06029         0.083979     -0.058819     -0.112299
Li	      1.96848      6.37615      4.29748        -0.001021     -0.027224      0.056074
Li	      2.05413      4.31328      6.13400        -0.009778      0.079780      0.017403
Li	      6.36211      6.41870      8.42274        -0.020245     -0.031690      0.022742
Ti	      2.15360      6.40635      8.31271         0.033112     -0.006455      0.051028
Ti	      6.38625      2.17905      8.23258         0.022305     -0.000214     -0.264946
Ti	      8.44164      8.58270      8.40915        -0.014992     -0.034243      0.201254
Mn	      4.31041      8.53790      8.26661         0.001033      0.033655      0.087225
Mn	      8.41888      4.34126      8.32293         0.016231      0.016757     -0.175401
Mn	      4.18929      4.31935      4.23537        -0.000927      0.050329      0.035863
Mn	      4.32907      6.48744      6.11523        -0.051498     -0.089056      0.005946
V	      8.35342      6.39072      6.13182         0.049746      0.187576      0.037096
Co	      0.03815      4.32366      4.19002        -0.043686      0.187019      0.000042
O	      2.02185      2.07385      2.02324        -0.087298     -0.079061      0.009701
O	      4.31553      4.43895      2.04793         0.108654      0.099120     -0.059342
O	      4.24451      2.17747      4.21871         0.017620     -0.004080      0.028024
O	      6.32130      4.34627      3.96593         0.009311      0.040207     -0.123887
O	      6.23948      2.21351      6.34844        -0.117891     -0.005023      0.220676
O	      8.42970      4.53914      6.24898        -0.004511     -0.232150     -0.075849
O	      2.02347      4.30009      4.14021        -0.018388     -0.069201      0.060711
O	      4.24206      6.53310      3.99009         0.038213      0.037748     -0.047399
O	      4.27411      4.16472      6.36209        -0.007288      0.169720      0.028242
O	      6.49869      6.42595      6.25308         0.045931      0.014810      0.044324
O	      6.25056      4.18358      8.41757        -0.084787     -0.090827     -0.022442
O	      8.57474      6.58324      8.20783         0.030751      0.096817      0.002529
O	      2.16327      6.42096      6.40512        -0.007459     -0.023621      0.076771
O	      4.26147      8.60063      6.15359         0.033777     -0.057281     -0.053935
O	      4.16492      6.30005      8.31198        -0.029483     -0.085629      0.053571
O	      6.49698      8.69014      8.34810         0.075111      0.048125     -0.003966
O	      6.36209      6.25049     10.34452         0.005726     -0.127607      0.048816
O	      8.58295      8.56448     10.27393        -0.029899     -0.021116     -0.252099
