# total energy = -250.23444092 eV
 
CRYSTAL
PRIMVEC
-0.015683 6.418826 6.477325 
6.405924 0.013792 6.447583 
4.277328 4.266228 0.002398 
PRIMCOORD
36 1
Li	     10.55223      4.30507      6.44758        -0.008293      0.019947     -0.012850
Li	      8.50525      2.27588      6.57636         0.020366     -0.021371      0.035079
Li	      6.40785      4.29817      2.19041         0.002506      0.043407      0.011279
Li	      4.19576      2.20418      2.17578        -0.072433      0.028738      0.013423
Li	      8.54889      4.20749      8.46274        -0.029989      0.052604     -0.126095
Li	      4.29131      4.26133      4.24730        -0.035527      0.003222     -0.014996
Li	      6.54177      4.18838      6.42552         0.018670     -0.042651     -0.042641
Li	      6.39250      4.34636     10.73899         0.005954     -0.002998     -0.007075
Li	      6.36998      6.42658      8.67223         0.031077      0.026760     -0.011842
Ti	      6.30947      8.58220      6.52963        -0.262502      0.093090     -0.183950
Ti	      4.26091      6.43057      6.43629        -0.076695      0.137269     -0.183274
Ti	      4.37711      4.32269      8.63067         0.253985     -0.122550      0.217732
Mn	      6.38378      2.17390      4.28361        -0.012874      0.005797      0.004759
Mn	      8.50769      6.36975      6.45358         0.011860     -0.053132     -0.021019
Mn	      8.43208      6.36539     10.73442         0.052191     -0.031044      0.002151
Mn	      2.14375      2.13051      4.21702        -0.032592      0.041508     -0.052651
V	      0.07712      2.03068      2.01605        -0.081690     -0.082834      0.022354
Fe	      8.58078      4.27917      4.41738         0.017334     -0.031663     -0.094596
O	      1.95385      2.21994      2.11338         0.105418     -0.055512     -0.045333
O	      4.19460      4.51714      2.21420         0.032466      0.029949     -0.036251
O	      4.27334      2.06262      4.23940         0.004573      0.017787     -0.039445
O	      6.56796      4.26978      4.27507        -0.040325     -0.011251     -0.017230
O	      6.41863      2.13316      6.56384         0.037903     -0.018771      0.023345
O	      8.55669      4.25010      6.36075        -0.032178     -0.001703      0.011440
O	      2.13568      4.26177      4.59512        -0.022959      0.028553      0.280707
O	      4.24955      6.40653      4.49705         0.000358      0.016743      0.259325
O	      4.19756      4.38602      6.55413         0.010772      0.135294      0.116987
O	      6.27998      6.53595      6.51008        -0.114977      0.081932      0.050294
O	      6.28401      4.12060      8.60592        -0.242645      0.017725     -0.023219
O	      8.63857      6.55210      8.58890        -0.029074      0.144152     -0.040445
O	      2.27311      6.30485      6.50832         0.122694     -0.159105      0.098120
O	      4.37892      8.41940      6.59200         0.202279     -0.136676      0.062307
O	      4.31062      6.26395      8.47922         0.031778     -0.148118      0.063037
O	      6.57373      8.53218      8.47844         0.081229      0.005888     -0.107624
O	      6.29933      6.41803     10.74718        -0.012027     -0.008130     -0.008526
O	      8.54941      8.63097     10.57733         0.063365     -0.002859     -0.203280
