# total energy = -245.28871749 eV
 
CRYSTAL
PRIMVEC
0.010271 6.384557 6.340481 
6.400983 0.032804 6.317380 
4.272782 4.246684 0.016756 
PRIMCOORD
36 1
Li	      2.15418      2.22543      0.20143         0.003480      0.013223      0.052176
Li	      6.24428      4.32848      2.07603         0.014827      0.049560      0.023552
Li	      4.25544      2.27305      2.01322        -0.056493      0.049040      0.042493
Li	      0.07349      1.99849      2.01448         0.029977      0.019148     -0.004934
Li	      8.63038      4.27362      8.26427         0.035890     -0.024418      0.005815
Li	      4.29708      4.25513      4.21672         0.030010     -0.017418     -0.141011
Li	      8.58074      6.37226      6.36766         0.021622     -0.085861      0.007068
Li	      6.44829      4.16476      6.37847         0.140026     -0.088554      0.011439
Li	      4.22732      6.35330      6.40838        -0.018100      0.058186      0.009135
Ti	      2.24291      2.05577      4.10067         0.119393     -0.098771     -0.703178
Ti	      2.31662      6.24091      4.27900         0.124592      0.027005      0.187134
Ti	      6.35709      6.33700      8.23508        -0.108928     -0.225699     -0.033249
Mn	      4.22305      4.27713      0.11053        -0.045789     -0.075154      0.056424
Mn	      4.30186      8.46307      4.29651        -0.054398      0.045631      0.104484
Mn	      8.50862      4.23525      4.31219         0.021021     -0.000031      0.118796
Mn	      4.25401      4.24252      8.35834         0.025118     -0.021262     -0.016892
V	      6.32001      2.17884      4.25810        -0.063421      0.047765      0.098123
Ni	      2.15522      4.31504      6.39232        -0.124468      0.065329      0.036518
O	      2.13232      2.15191      2.30686        -0.012652     -0.008907      0.574183
O	      4.29953      4.29813      1.97214         0.007663      0.029008      0.119660
O	      4.18455      2.18609      4.22161        -0.090075      0.053306      0.023860
O	      6.35017      4.39617      4.24128        -0.044213      0.071512      0.007171
O	      6.39706      2.06695      6.19679        -0.017242      0.007113     -0.065575
O	      8.51278      4.23366      6.32174        -0.068370      0.040348     -0.037855
O	      2.18874      4.27553      4.27783         0.083875      0.127795     -0.075084
O	      4.23191      6.36089      4.20340        -0.175297     -0.084696      0.024375
O	      4.19623      4.25198      6.50776         0.132899     -0.003810      0.117209
O	      6.37775      6.46250      6.37177        -0.064116     -0.111878      0.227792
O	      6.37039      4.43534      8.45932        -0.056151      0.275746     -0.135413
O	      8.37948      6.40149      8.58171        -0.110180      0.025536      0.037436
O	      2.21753      6.40918      6.15501         0.072532      0.031441     -0.321107
O	      4.36538      8.67757      6.37453        -0.045967      0.024082     -0.064034
O	      4.45297      6.36964      8.50421         0.243754     -0.068769     -0.160293
O	      6.41344      8.41906      8.54317         0.016192     -0.085859      0.021217
O	      6.51833      6.47008     10.58167         0.062207      0.012715     -0.070682
O	      8.43714      8.40067     10.39114        -0.029218     -0.072404     -0.076751
