# total energy = -231.87127338 eV
 
CRYSTAL
PRIMVEC
0.013031 6.409842 6.200355 
6.308548 -0.003569 6.217258 
4.194148 4.272146 0.009363 
PRIMCOORD
36 1
Li	      8.35095      2.19760      6.20010         0.003959      0.046152      0.056645
Li	      8.33411      4.22263      4.17815        -0.010169      0.032429      0.006527
Li	      6.30449      2.29095      8.22054         0.021686     -0.077538      0.008364
Li	      4.22922      4.24605      4.36816         0.028885     -0.002644     -0.083107
Li	      4.23907      2.27440      6.32271         0.002852     -0.066060      0.005156
Li	      6.20735      4.19566      6.29849         0.069205     -0.006387     -0.037165
Li	      2.25020      4.24232      6.22327        -0.058356     -0.001077     -0.007936
Li	      4.27364      6.18215      6.20159         0.000084      0.009922      0.004008
Li	      6.36254      6.30901      8.21250         0.020681     -0.019137      0.023076
Ti	      6.17018      0.10116      6.14376        -0.343142      0.130398      0.014031
Ti	      6.36712      6.39581      4.28339         0.044383      0.035650      0.328957
Ti	      2.27631      6.47435      4.12197         0.232845      0.147266     -0.341130
V	      2.15853      6.41592      8.20986        -0.022644      0.138967      0.091323
Cr	      4.22007      8.53028      8.18759        -0.061019      0.003356     -0.058337
Co	      4.24160      4.25080      8.20445         0.028535     -0.030844     -0.082263
Cu	      8.30722      4.30084      8.26242         0.054522     -0.004913     -0.110888
Cu	      4.21013      8.55786      4.18069        -0.029293     -0.056388      0.122242
Ni	      6.23981      2.17209      4.18912        -0.028266      0.102373     -0.007130
O	      2.16107      1.99852      2.08898         0.120405     -0.196304      0.051111
O	      4.37668      4.16886      1.95494         0.152621     -0.088204     -0.112681
O	      4.10319      2.12628      4.01641        -0.255356      0.022496     -0.006855
O	      6.28332      4.37000      4.01168        -0.001139      0.112925     -0.026139
O	      6.29630      2.01294      6.21192        -0.032784     -0.262256      0.087588
O	      8.47771      4.27509      6.29808         0.335214      0.026553     -0.096428
O	      2.13043      4.20565      4.02578         0.087731     -0.113412      0.158868
O	      4.18766      6.35424      4.16231        -0.187151     -0.232257      0.066088
O	      4.22783      4.24107      6.28447         0.017790     -0.051063      0.213414
O	      6.32206      6.40695      6.07485        -0.002593     -0.033070     -0.476229
O	      6.27791      4.29739      8.43449        -0.220788     -0.046617     -0.113418
O	      8.43755      6.39742      8.46282         0.013439      0.253984      0.358358
O	      2.05147      6.39643      6.15408        -0.018467      0.009651     -0.051995
O	      4.20088      8.73310      6.18625         0.002804      0.087596      0.092560
O	      4.03778      6.49372      8.21934        -0.015096      0.013384     -0.088548
O	      6.24620      8.66994      8.32836        -0.011679      0.031101     -0.066329
O	      6.38756      6.47298     10.42498         0.070151      0.143352      0.210409
O	      8.33926      8.40941     10.33993        -0.009848     -0.059388     -0.132149
