# total energy = -231.57139061 eV
 
CRYSTAL
PRIMVEC
0.002475 6.569964 6.234763 
6.204799 0.014844 6.222732 
4.142841 4.378753 0.002871 
PRIMCOORD
36 1
Li	      2.25334      6.58383      8.28651        -0.101876      0.011121      0.008744
Li	      4.09449      8.60715      8.36349        -0.060304      0.054135      0.005434
Li	      8.18222      4.46030      8.31556        -0.017896      0.001821      0.024709
Li	      6.27551      6.57884      4.34040         0.054873      0.032925     -0.006101
Li	      8.13064      6.68429      6.30274         0.075493      0.083066     -0.015100
Li	      6.20101      4.62852      6.32512         0.033159      0.004439      0.064505
Li	      6.25301      8.53961      6.31306        -0.004934      0.045195      0.003866
Li	      4.30572      6.49974      6.37808        -0.015770     -0.054919     -0.047958
Li	      4.22542      4.46261      8.20807         0.014949     -0.014645      0.034382
Ti	      4.17455     10.91018      6.30294         0.091885     -0.065002      0.222798
Ti	      2.07544      2.22528      0.03834         0.072848      0.163222      0.153653
Ti	      4.09847      4.45282      4.35299        -0.192799     -0.083734      0.363869
V	      6.15825      8.84409     10.17126         0.015964      0.090869      0.200854
Cr	     10.29122      6.57973      8.27684         0.198987      0.046166      0.010201
Co	      0.08860      4.28677      4.07838         0.080569     -0.122283      0.019609
Cu	      4.04086      0.04782      4.07901        -0.216411     -0.034264      0.159225
Cu	      2.07682      6.52523      4.11459         0.029733     -0.021724      0.149789
Cu	      6.20709      6.54691      8.23546         0.124074      0.007113     -0.043842
O	      4.22679      6.61377      8.38019         0.091300      0.018738     -0.026076
O	      2.00936      2.12029      1.87995         0.050904     -0.010733     -0.317231
O	      4.09459      4.48138      1.92072         0.016776     -0.044911     -0.253745
O	      4.22214      2.48312      4.12770        -0.051102      0.184525      0.019895
O	      6.19065      4.22142      4.17753        -0.202363      0.054084      0.003793
O	      6.22880      2.04736      6.18266         0.049758     -0.066032      0.037874
O	      8.31903      4.18182      6.12452         0.053993     -0.095110     -0.040111
O	      2.16017      4.46628      4.17517         0.172434     -0.308047      0.006845
O	      4.31789      6.40705      4.02815        -0.008590     -0.058459      0.090057
O	      4.13110      4.45977      6.14493        -0.001979      0.013582     -0.319773
O	      6.23300      6.58650      6.32257        -0.038890      0.000561     -0.145890
O	      6.20530      4.15568      8.36148         0.038259     -0.073739     -0.096872
O	      8.28430      6.53365      8.37257        -0.238067     -0.005600     -0.194230
O	      1.94009      6.69320      6.14575        -0.102552      0.014175      0.027156
O	      4.05170      8.92298      6.14203        -0.048101      0.122785      0.033272
O	      6.23183      8.89498      8.44834         0.002755      0.019921     -0.285276
O	      6.01419      6.78411     10.42165         0.145572     -0.010671      0.110020
O	      8.17758      8.57152     10.46132        -0.112653      0.101430      0.041656
