# total energy = -90.53305583 eV
 
CRYSTAL
PRIMVEC
2.155048 4.323357 2.155097 
2.202528 -4.370660 2.202532 
4.362351 -0.000028 -4.362421 
PRIMCOORD
16 1
Li	      2.47006     -0.02021      2.10366         0.018150     -0.205910      0.894166
Li	      2.44099     -2.07851      0.08385         0.239906     -0.483712     -0.088158
Li	      4.60151     -0.02193     -0.02532         0.645932     -0.203285      0.146418
Li	      4.56809     -2.29173     -2.25091         0.204272     -0.093767      0.144739
Mn	      0.42306     -0.00242      0.01023        -7.617547     -0.191668     -0.177837
Mn	      2.39941      2.05166      0.08026         0.061990      3.237326     -1.074384
Ni	      2.52357     -0.00221     -2.09006        -0.580846     -0.091108     -1.934299
Ni	      4.66167      2.05175     -2.18128        -1.263594      1.229292      0.314512
O	      7.02944     -0.02344      0.00080         0.037945     -0.302427      0.352268
O	      4.40238      2.24479     -0.02479        -0.533602     -0.866995      0.249521
O	      4.57232     -0.02507     -2.45715         0.722110      0.028100      1.197150
O	      4.57965     -0.17798      2.40761         0.554029     -0.906025     -0.435274
O	      4.59706     -2.29322      0.16907         0.134518      0.127594      1.314572
O	      2.27169      2.39903      2.14734         1.440399     -1.222924     -0.859639
O	      2.16449      0.12962     -0.00752         4.188187     -0.433532      0.493428
O	      2.42407     -2.44829      2.30052         1.748152      0.379042     -0.537183
