# total energy = -232.00530836 eV
 
CRYSTAL
PRIMVEC
-0.021645 6.343569 6.388038 
6.288181 0.011028 6.355258 
4.198786 4.213921 0.000712 
PRIMCOORD
36 1
Li	      2.13360      0.01198      2.15762         0.001867      0.016709      0.016387
Li	      2.03122      4.27557      2.29227         0.000306     -0.025909     -0.002621
Li	      8.18143      6.51480      6.47056         0.008152     -0.008753      0.076890
Li	      0.16725      4.22781      4.18617        -0.006444      0.006045     -0.021551
Li	      2.07714      6.15433      4.22068        -0.019607     -0.026370      0.031742
Li	      2.26198      4.06903      6.26252        -0.049858      0.010477     -0.034204
Li	      4.32266      6.17193      6.39388        -0.010366      0.020667      0.037007
Li	      4.16365      4.24677      8.31089        -0.024964      0.065757     -0.020460
Li	      6.33243      6.29528      8.32293        -0.012685     -0.026992     -0.029937
Ti	      0.01262      6.32658      6.39814         0.082104     -0.023584     -0.015587
Ti	      2.11821      8.39059      6.37629         0.125197     -0.173686     -0.022374
Ti	     10.28834      6.47031      8.58967        -0.344026      0.219250      0.145192
V	      4.28943      8.39279      8.52742        -0.146136      0.084995     -0.213244
Cr	      8.35810      4.22394      4.23435         0.008984     -0.109833      0.003174
Co	      6.28797      2.14186      4.21641         0.102758     -0.012692      0.006092
Ni	      6.24776      6.42135      4.36557         0.005850     -0.108246     -0.125897
Ni	      4.10144      4.25310      4.35083         0.121074     -0.033649     -0.140798
Ni	      6.18732      4.34462      6.39797         0.174607     -0.169423      0.026172
O	      2.20753      2.12066      1.96587         0.022866     -0.009152     -0.085563
O	      4.19629      4.20881      1.98617        -0.008858      0.019265     -0.088885
O	      4.15651      2.06813      4.10945         0.101326     -0.145010     -0.039176
O	      6.32189      4.19905      4.29295         0.079414     -0.054441     -0.108338
O	      6.39798      2.01886      6.48318         0.037921     -0.042898      0.039311
O	      8.47688      4.11719      6.27470         0.051415     -0.019948      0.009517
O	      2.11573      4.18920      4.24972        -0.102242      0.124297     -0.017700
O	      4.23668      6.28893      4.08922        -0.176823      0.125308     -0.257252
O	      4.21386      4.23099      6.33543        -0.146656     -0.048428      0.127049
O	      6.28206      6.30420      6.36185         0.018410      0.169702      0.088394
O	      6.28502      4.09523      8.45267        -0.033861     -0.281258      0.144446
O	      8.48668      6.35186      8.50816         0.321545      0.052549      0.028374
O	      1.94252      6.47429      6.32614        -0.135889      0.178057      0.023287
O	      4.08734      8.53685      6.47187        -0.087978      0.130797      0.029852
O	      4.14999      6.48544      8.62145         0.042798      0.037942      0.111679
O	      6.07009      8.49532      8.49338         0.095209      0.022953      0.039658
O	      6.16956      6.42333     10.80061        -0.035395     -0.014203      0.102646
O	      8.34089      8.56333     10.78426        -0.060014      0.049704      0.136717
