# total energy = -234.34157101 eV
 
CRYSTAL
PRIMVEC
-0.001536 6.190399 6.361238 
6.234970 -0.018367 6.378366 
4.162207 4.143837 -0.018073 
PRIMCOORD
36 1
Li	      6.26052      4.14005      2.18778        -0.011893      0.014154      0.000624
Li	      4.10081      2.05735      2.17462        -0.038243     -0.012396     -0.018384
Li	      2.11603      4.13681      2.30497        -0.017849     -0.019842     -0.003225
Li	      2.08221      2.15041      4.20465        -0.049546     -0.076002     -0.018440
Li	      4.03299      4.11182      4.20893         0.084111     -0.012537     -0.028386
Li	      6.22602      4.14374      6.27072        -0.000422     -0.013774     -0.106030
Li	      2.10702      6.06241      4.25032        -0.052987      0.073226      0.057739
Li	      2.09130      4.13070      6.17292        -0.050748     -0.009550      0.041747
Li	      8.32076      8.28176      8.50197        -0.017984      0.032938      0.010056
Ti	      4.24999     10.22891      6.48370         0.220734     -0.113573      0.276563
Ti	      0.06925      2.18709      2.28032         0.502204      0.133464      0.182454
Ti	      4.10838      2.20365      6.33457         0.001064      0.232859     -0.049505
V	      6.24685      6.28420      8.45370        -0.055182     -0.023298      0.063073
Cr	      4.12158     -0.00216      4.21111         0.230510     -0.267287     -0.035687
Co	      0.09845      4.12238      4.23021        -0.081402      0.034290      0.052689
Co	      8.27624      2.07600      6.36932         0.047554     -0.031312      0.031097
Cu	      6.27152      2.13331      4.21277         0.003864     -0.133406     -0.093321
Ni	      4.12938      6.11840      6.34332        -0.029667      0.101772     -0.039243
O	      1.92341      2.09018      2.06323        -0.438943      0.042877      0.159114
O	      4.15315      4.20151      1.97634        -0.016794     -0.002529     -0.201719
O	      4.17049      2.02094      4.37960        -0.060110     -0.025558      0.041236
O	      6.34162      4.04568      4.19586        -0.109610      0.247400      0.053196
O	      6.11824      1.98114      6.56720        -0.090776     -0.042004      0.101444
O	      8.45214      4.18316      6.21705         0.045526      0.134093     -0.010071
O	      2.03758      4.11823      4.23702        -0.638611     -0.059611     -0.033975
O	      4.13461      6.16706      4.15476         0.067723      0.040083     -0.156342
O	      4.15310      4.04569      6.33505        -0.026741     -0.418465     -0.027703
O	      6.29297      6.12092      6.47198         0.217781      0.058828     -0.016636
O	      6.22107      4.10706      8.49621         0.057853     -0.013861      0.199898
O	      8.29133      6.16906      8.34198         0.057356      0.017519     -0.057230
O	      2.00169      6.21513      6.36897        -0.313053     -0.109156     -0.037150
O	      4.15115      8.31270      6.38163         0.102626      0.163809     -0.269172
O	      4.27272      6.15608      8.49257         0.055058      0.056132      0.107384
O	      6.24947      8.03539      8.41149         0.011205     -0.000539     -0.017111
O	      6.19785      6.26744     10.58644         0.042049     -0.158812     -0.056973
O	      8.33948      8.32168     10.66220         0.353345      0.160068     -0.102011
