# total energy = -234.50569863 eV
 
CRYSTAL
PRIMVEC
0.016254 6.137785 6.382137 
6.272501 -0.008797 6.407228 
4.185633 4.112421 -0.009742 
PRIMCOORD
36 1
Li	      4.21360     10.21212      6.41698         0.005048     -0.024420      0.027913
Li	      2.17531      6.11778      8.47674        -0.041744      0.020702     -0.062553
Li	      8.39416      4.09516      8.48551         0.016080     -0.002973     -0.020733
Li	      6.27777      6.13105      4.37128        -0.012845      0.010964      0.059012
Li	      2.12530      6.16095      4.31481         0.038885     -0.038292      0.062222
Li	      6.36703      8.17849      6.43933         0.032126      0.058467      0.023214
Li	      4.23398      6.07571      6.54643         0.019834     -0.025170      0.005109
Li	      4.18994      4.22929      8.38038        -0.020875     -0.013002     -0.105515
Li	      6.15129      6.15001      8.39617        -0.036231      0.067412      0.011419
Ti	      2.15553      8.07313      6.42049         0.024595     -0.353944      0.154750
Ti	      6.30695      8.19937     10.46261        -0.065227     -0.102457     -0.543417
Ti	      0.20876      4.17510      4.21993         0.643094     -0.007979      0.064438
V	      4.12883      6.09301      2.17873         0.012746     -0.225131     -0.007857
Cr	      8.34847      6.13840      6.39265         0.015068      0.087616      0.036549
Co	      6.24073      4.16521      6.42904         0.274587      0.218164      0.010191
Co	      4.15117      2.05256      2.10224         0.057138      0.110950     -0.060826
Ni	      4.18046      6.12124     10.58787        -0.025793      0.075846      0.026715
Ni	      4.12490      4.14034      4.30049        -0.074323      0.045312      0.139998
O	      1.95681      2.08261      1.98177         0.012326     -0.067690     -0.131589
O	      4.16873      4.11611      2.23345         0.002858      0.062879     -0.116282
O	      4.29377      2.03564      4.36501         0.049356      0.029365     -0.042959
O	      6.25326      3.96339      4.27684        -0.005657     -0.125400      0.261319
O	      6.29327      2.02388      6.44206         0.017637      0.024858     -0.007095
O	      8.33147      4.08186      6.32385         0.418898     -0.152841      0.078801
O	      2.02595      4.12930      4.27674        -0.715045     -0.013387     -0.044094
O	      4.20313      6.22194      4.10216         0.015460      0.191953     -0.033937
O	      4.20683      4.03158      6.34241        -0.428159     -0.051033      0.072587
O	      6.39724      6.14610      6.41000        -0.157006     -0.192802     -0.005023
O	      6.26414      4.01424      8.70723         0.014106      0.032978     -0.148905
O	      8.58923      6.14394      8.39406         0.035871     -0.005799      0.059817
O	      2.09785      6.25870      6.38231         0.000560      0.499567      0.004305
O	      4.07440      8.20791      6.21533        -0.074006     -0.032898     -0.084526
O	      4.16447      6.26515      8.57185        -0.039438      0.030516     -0.102694
O	      6.26877      8.18175      8.64129        -0.033569      0.043512      0.432027
O	      6.28492      6.10757     10.62841         0.087862     -0.041168     -0.008487
O	      8.27087      8.17415     10.76171        -0.064220     -0.134675     -0.003894
