# total energy = -236.92571189 eV
 
CRYSTAL
PRIMVEC
0.053167 6.176591 6.310967 
6.314452 0.040778 6.324330 
4.234562 4.152157 0.001644 
PRIMCOORD
36 1
Li	      2.19174      8.12956      6.29666         0.036041      0.012051      0.011593
Li	      2.19027      6.15195      8.35652        -0.029876     -0.032180     -0.070533
Li	      6.31451      2.13306      4.21136        -0.012891      0.065860      0.012744
Li	      4.20779      4.18105      4.29441         0.014672     -0.004836     -0.049555
Li	      6.26373      4.15746      6.29514         0.008134      0.013482      0.052696
Li	      4.31243      8.22502      4.28122         0.021626     -0.049047      0.020084
Li	      2.17780      4.18994      6.22759        -0.063531     -0.091550      0.002797
Li	      4.13730      6.13193      6.20014        -0.007580      0.008497     -0.046033
Li	      4.20774      4.18379      8.38959         0.001819      0.011230      0.004581
Ti	      4.17398      2.11501      2.04712        -0.113951      0.118539     -0.392922
Ti	      8.32855      4.05698      4.29228        -0.207511     -0.494459      0.128256
Ti	      6.40132      6.19949      8.39435        -0.002238      0.053953     -0.341619
V	      0.06009      2.11833      2.14911         0.121317     -0.032756     -0.342349
Cr	      0.13565      6.18327      6.24328        -0.090710     -0.083005      0.166409
Co	      2.12801      4.12077      2.16342        -0.017481     -0.043512     -0.186367
Co	      4.25237      2.26788      6.25732         0.073268      0.109881      0.080050
Co	      2.15748      6.19949      4.25337         0.342661     -0.055469      0.022964
Cu	      6.29780      6.26491      4.30819         0.061202      0.169855     -0.076845
O	      2.19718      2.04808      2.01138         0.270807      0.026690     -0.176456
O	      4.27221      4.14168      2.00365         0.004755     -0.160079     -0.045825
O	      4.18812      2.05188      4.14419        -0.022649      0.030475      0.091739
O	      6.48146      4.23835      4.24007         0.243284     -0.226916      0.027396
O	      6.29474      2.04117      6.43149        -0.148835      0.094989     -0.000452
O	      8.56500      4.32416      6.23974        -0.022069      0.036645     -0.143753
O	      2.13753      4.11410      4.14972        -0.017077     -0.145975      0.185080
O	      4.28962      6.19201      4.09311        -0.047581     -0.008105      0.247099
O	      4.24194      4.04554      6.30962         0.009443     -0.160869      0.026038
O	      6.43646      6.17286      6.54734         0.011970      0.033961      0.340183
O	      6.36146      4.16629      8.41833         0.002857      0.097103      0.009867
O	      8.42834      6.27608      8.50334        -0.131215      0.067761     -0.422864
O	      2.09519      6.17251      6.19896        -0.029572     -0.027065      0.602580
O	      4.27587      8.30590      6.46502         0.052188      0.072741      0.172743
O	      4.35653      6.27210      8.53210         0.061981      0.012111      0.069655
O	      6.22476      8.14689      8.46662        -0.048280     -0.087941      0.043280
O	      6.30115      6.19819     10.52555        -0.253785      0.043115      0.015565
O	      8.45792      8.38319     10.54819        -0.071191      0.624826     -0.037823
