# total energy = -236.69101812 eV
 
CRYSTAL
PRIMVEC
0.001072 6.290379 6.220460 
6.315622 -0.017334 6.238759 
4.197558 4.192733 0.001415 
PRIMCOORD
36 1
Li	      4.21601      4.17518      0.05931         0.047516      0.004064     -0.020430
Li	      2.07815      2.07007      0.02037        -0.058235     -0.002076      0.003745
Li	      4.15934      6.20528      2.15556        -0.030069      0.013874      0.017207
Li	      2.13935      4.25366      2.10396        -0.051717      0.054148     -0.026146
Li	      6.11893      6.30387      4.12627        -0.100325      0.035494      0.002354
Li	      4.18888      4.31767      4.09837         0.017253      0.048543     -0.062737
Li	      4.19633      6.29989      6.16964        -0.020649      0.023680     -0.002390
Li	      8.44508      8.31620      8.29515         0.053065     -0.038624      0.032533
Li	      6.35074      6.26316      8.31624         0.055023     -0.041274     -0.032185
Ti	      4.04184      2.13616      2.08021        -0.281633      0.108229      0.134926
Ti	      6.40038      8.34475     10.32685         0.155282     -0.295752      0.026366
Ti	      6.29922      4.23856      6.35384         0.322346      0.291908      0.711579
V	      2.11524      4.25393      6.18397        -0.137719     -0.981360     -0.027879
Cr	      8.40934      6.29007      6.27505        -0.147571     -0.119702      0.271479
Co	      4.25547      6.26336     10.34805         0.013540     -0.039925     -0.018582
Co	     10.50575      8.30364     10.32944        -0.092844      0.023110     -0.011930
Co	      8.50216      6.23357     10.24272        -0.306692      0.200869      0.570094
Ni	      6.29514      4.21526      2.12512        -0.005575      0.029236     -0.273352
O	      2.19784      2.08152      2.05180         0.327242      0.145309     -0.029661
O	      4.25122      4.03946      2.07078        -0.184352     -0.284738      0.017627
O	      4.35616      2.09087      4.12958         0.042913      0.006971      0.008546
O	      6.30915      4.07393      4.21810        -0.018296     -0.089256      0.164530
O	      6.24734      2.20695      6.13795         0.009369      0.051830     -0.093497
O	      8.24393      4.26074      6.19830        -0.048041      0.061522     -0.042631
O	      2.05937      4.15457      4.29810        -0.007997      0.225757     -0.045204
O	      4.14344      6.33367      4.14068        -0.162147      0.008598     -0.130249
O	      4.21077      4.12357      6.22324        -0.640539      0.025038      0.079319
O	      6.38193      6.29800      6.22236         0.036281     -0.539000     -0.142330
O	      6.27668      4.21248      8.18521        -0.003031     -0.023448     -0.680215
O	      8.41975      6.25809      8.22621         0.065463     -0.030580     -0.396110
O	      2.14390      6.05924      6.27711         0.087835      0.953716     -0.245827
O	      4.34892      8.35505      6.32205         0.576459     -0.005690      0.217655
O	      4.17119      6.42953      8.34357         0.086774      0.149787      0.056819
O	      6.27412      8.38418      8.34653         0.001048      0.043335      0.038833
O	      6.36000      6.37267     10.43064         0.241171      0.073347     -0.075354
O	      8.32068      8.37399     10.40344         0.158850     -0.086941      0.003099
