# total energy = -230.59768396 eV
 
CRYSTAL
PRIMVEC
0.024799 6.106724 6.341064 
6.232517 0.005817 6.359982 
4.158110 4.086903 0.000771 
PRIMCOORD
36 1
Li	      2.09709      8.09789      6.33921         0.042998     -0.037209      0.043533
Li	      2.11954      6.10137      8.38540        -0.028547      0.034174     -0.102306
Li	      4.21201      6.11689     10.56244         0.067301     -0.005304     -0.005161
Li	      6.24499      2.06119      8.42445         0.002884      0.027462     -0.034924
Li	      8.28887      4.13778      8.47753        -0.048162      0.068909      0.014097
Li	      6.24172      6.12563      4.25977         0.011966     -0.005802     -0.001466
Li	      8.34193      6.12236      6.38267         0.036888     -0.019608      0.032870
Li	      4.14288      6.14440      6.36623        -0.045033      0.079869      0.027530
Li	      6.24807      6.10979      8.45123         0.000709     -0.035709     -0.056034
Ti	      4.14338      4.16245      4.19749         0.023862      0.127802     -0.113773
Ti	      6.39947      4.17283      6.36426         0.323258      0.263613      0.063530
Ti	      8.28446      8.13476      8.47539         0.134908     -0.246314      0.095243
V	      3.99175      1.96116      2.13900        -0.254362      0.020523     -0.049767
Cr	     10.38579      4.12529      6.39101        -0.067921     -0.044332      0.126431
Cu	      0.05167      4.04098      4.21997         0.016701     -0.088295     -0.058775
Ni	      6.26006      8.12772     10.60079         0.050385     -0.000521     -0.049401
Ni	      2.08422      6.12014      4.25208         0.033111     -0.014434     -0.025259
Ni	      6.25667      8.11025      6.36609        -0.052443     -0.086652      0.011885
O	      2.24808      2.01859      2.13774        -0.026062     -0.001254      0.048917
O	      4.16684      4.02401      2.18931        -0.014024      0.055568      0.032686
O	      4.20648      2.13332      4.10310        -0.069987      0.021988      0.125762
O	      6.10101      4.07180      4.36242        -0.047577      0.095536      0.040461
O	      6.25942      2.06236      6.30204        -0.020761      0.021073      0.083075
O	      8.28090      4.09667      6.37175        -0.174636     -0.012648     -0.005759
O	      2.14816      4.05908      4.26570         0.120497     -0.094368     -0.065575
O	      4.16432      6.08253      4.19005         0.080000     -0.202084      0.010574
O	      4.18900      4.07862      6.30124         0.119714      0.023802      0.014312
O	      6.27823      6.03045      6.32605         0.000109     -0.301621     -0.013589
O	      6.12751      4.08184      8.28688        -0.090569      0.020194     -0.284351
O	      8.30818      6.26504      8.50448        -0.025766      0.238055     -0.114915
O	      1.98994      6.07022      6.31029         0.051023      0.124741      0.124696
O	      4.21958      8.20990      6.53033        -0.110751     -0.027279      0.133971
O	      4.16455      6.11241      8.47365         0.036118     -0.161273     -0.006678
O	      6.29068      8.15506      8.48758         0.070083      0.004726      0.028963
O	      6.26577      6.03946     10.73855        -0.131149      0.022752     -0.013193
O	      8.37834      8.17592     10.43799        -0.014763      0.133919     -0.057611
