# total energy = -229.53482379 eV
 
CRYSTAL
PRIMVEC
-0.036880 6.440252 6.124978 
6.207737 -0.041982 6.131254 
4.121379 4.280313 -0.011743 
PRIMCOORD
36 1
Li	      6.18519      4.30099      2.09515         0.073262      0.027987     -0.022131
Li	      6.18861      2.18034      4.10176        -0.033379      0.034799      0.018087
Li	      4.14781      6.42055      2.10952         0.012727      0.044379     -0.026968
Li	      6.08737      6.38672      4.14231         0.054784     -0.010864      0.068117
Li	      4.15531      2.07474      6.08180         0.029252      0.027810     -0.020227
Li	      6.21839      4.27424      6.04085        -0.012311      0.055571      0.074147
Li	      4.16040      8.50365      4.09943         0.030967     -0.028415     -0.013666
Li	      2.01405      4.26057      6.03447         0.003300     -0.080474     -0.029907
Li	      4.12109      6.44860      6.00171         0.045039     -0.006436      0.016909
Ti	      8.10212      8.45146     12.19510        -0.317623     -0.148637     -0.075930
Ti	      4.09392      4.27565      8.03686         0.038527     -0.018306     -0.374676
Ti	      6.18088      6.38973      8.07985         0.042351     -0.118943     -0.633069
V	      4.11014      2.16057      2.05209         0.142031     -0.139976      0.254291
Cr	      4.17742      4.34202      4.10765        -0.065921     -0.211315      0.129524
Cu	      8.17488      4.28826      4.15523        -0.019675     -0.014545      0.034921
Cu	      2.01750      4.25236      2.07009        -0.184311     -0.041541     -0.120733
Ni	      6.17657      6.41003     12.23347        -0.003899     -0.021524      0.000858
Ni	      2.07828      6.40292      4.09952         0.079659     -0.010096      0.016280
O	      2.19151      2.09165      1.94476        -0.118899     -0.059904     -0.082415
O	      4.14720      4.12103      2.07553         0.008935      0.046232     -0.031932
O	      4.15072      2.22287      3.90813         0.009787      0.262347     -0.076533
O	      6.20080      4.25456      4.08818         0.024312      0.081261      0.028679
O	      6.28837      2.06301      6.19332         0.317863      0.066299     -0.002808
O	      8.30134      4.11640      6.22125        -0.226281     -0.032933     -0.116573
O	      2.13717      4.34409      3.99859        -0.051288     -0.044154      0.101773
O	      4.10937      6.30202      4.05910         0.093536      0.056972     -0.067750
O	      4.09594      4.28167      6.18179         0.012142      0.036484      0.346411
O	      6.21305      6.40217      6.24899        -0.064060      0.017697      0.639208
O	      6.03135      4.40348      8.18216        -0.069794      0.129035      0.024470
O	      8.15725      6.61491      8.18406        -0.026583      0.206978     -0.129807
O	      2.00261      6.57434      6.11502         0.201630      0.087952      0.176748
O	      4.08037      8.60038      6.27966        -0.091204     -0.084250     -0.102993
O	      4.15483      6.39521      8.16384         0.038643      0.050729      0.079310
O	      6.19638      8.45696      8.14225         0.019373     -0.037867      0.029836
O	      6.06404      6.40329     10.17491        -0.007294      0.049225     -0.182785
O	      8.23783      8.48492     10.24030         0.014404     -0.171576      0.071334
