# total energy = -228.59701244 eV
 
CRYSTAL
PRIMVEC
0.017307 6.179993 6.280537 
6.490103 0.001497 6.296650 
4.315501 4.119264 0.012292 
PRIMCOORD
36 1
Li	      6.51059      0.08368      6.30695        -0.059437     -0.118096     -0.095476
Li	      8.47701      2.05587      6.21365         0.035227     -0.018516     -0.002624
Li	      6.34155      4.09735      2.11451        -0.045046      0.031318      0.060489
Li	      4.38841      8.29462      8.34975        -0.043464      0.035453      0.020185
Li	      8.61936      4.03038      4.34741         0.085467      0.043747      0.073804
Li	      6.54048      2.11513      4.31307        -0.047645     -0.012789     -0.086893
Li	      6.58492      2.05015      8.18394         0.082185     -0.038049      0.072149
Li	      6.51627      3.98524      6.30004        -0.008667      0.097825     -0.032888
Li	      6.45491      8.26559      6.31522        -0.005166     -0.017233     -0.019753
Ti	      2.28374      4.05006      2.02512         0.602228     -0.406102     -0.270441
Ti	      6.63019      6.06985      4.28934         0.151876     -0.509306      0.149518
Ti	      4.17736      6.26842      6.29409        -0.308957      0.329819     -0.340892
V	      6.46368      6.23854      8.48961        -0.119880      0.410423     -1.341113
Cr	      8.66307      8.21786      8.39421         0.147147      0.074734     -0.095047
Cu	      4.38480      4.13117      4.20279         0.122834      0.015198     -0.058699
Cu	      4.50439      2.04896      6.24091        -0.259553      0.001893     -0.090778
Cu	      2.10624      6.16879      4.26402        -0.103878     -0.049184      0.167840
Ni	     10.75917      8.21585     10.49392         0.034096      0.133776      0.145323
O	      2.10824      2.17978      2.24330         0.087669      0.365530     -0.012197
O	      4.16377      4.15985      2.15605        -0.560324      0.005483     -0.241784
O	      4.19416      2.21032      4.12474        -0.224857     -0.353148      0.112824
O	      6.62801      4.24885      4.15299         0.093416      0.367478      0.079142
O	      6.41741      2.03618      6.25436         0.162570      0.036586      0.059150
O	      8.64381      4.13782      6.45743        -0.028004     -0.117808      0.411747
O	      2.00420      4.15583      4.10872        -0.090076      0.045132     -0.081789
O	      4.55022      6.10597      4.34801         0.223679      0.319427      0.144465
O	      4.36621      4.16519      6.32723         0.015792      0.212843      0.387577
O	      6.53129      6.19482      6.30211        -0.071071      0.003531     -0.412470
O	      6.45045      4.19798      8.39487        -0.051610      0.219939      0.003624
O	      8.49528      6.17013      8.53450        -0.145213     -0.080276     -0.092491
O	      2.29546      6.18164      6.25602         0.405660      0.028972      0.215032
O	      4.34959      8.12350      6.27260        -0.043930     -0.398896      0.149913
O	      4.47198      6.12647      8.23798         0.206540     -0.154508      0.013586
O	      6.64679      8.15143      8.36618        -0.002476     -0.441244      0.188190
O	      6.29824      6.16685     10.28274        -0.090726     -0.018552      0.950585
O	      8.71988      8.13386     10.40625        -0.146406     -0.045400     -0.129806
