# total energy = -88.52935676 eV
 
CRYSTAL
PRIMVEC
1.899604 3.935536 1.934277 
3.922267 -3.997961 0.001461 
3.907346 -0.013510 -3.949921 
PRIMCOORD
16 1
Li	      3.70057      3.69838     -0.05350        -0.581697      0.851384      1.174395
Li	      3.70390      1.79648      1.77756        -0.204252      1.109417      0.978820
Li	      3.67214      0.02139     -0.00093        -0.345974     -1.028426     -0.055698
Li	      3.70146     -1.84201     -1.85395        -0.049501     -0.900234     -0.288035
Mn	      9.21729     -0.07047     -1.91270         5.888229      0.133934     -2.519755
Mn	      1.86088      1.86615     -0.04425        -5.900639      1.837930      2.096427
Ni	      3.66091      1.85049     -1.87553        -1.615161      1.689269     -2.672046
Ni	      5.58347     -0.02788     -1.85935         1.164166      0.955603     -1.111015
O	      5.51733     -0.18425      0.03647         0.650094      0.181299      2.313516
O	      5.55810     -1.86546     -1.75178         0.876305     -2.480435     -2.686849
O	      3.55036      1.83182     -0.03894         3.864278      0.842966      2.108356
O	      3.74370     -0.00759     -2.02548        -2.573636     -1.367424     -0.090450
O	      7.48260     -0.08103     -1.90782        -0.542377      0.307791      0.074595
O	      3.77576     -2.05908     -0.01779        -1.252190     -1.310478      0.896579
O	      5.54454      1.92503     -1.99511         1.905336      1.454712     -0.011147
O	      1.76112      0.10531      0.02516        -1.282979     -2.277308     -0.207693
