# total energy = -234.73095074 eV
 
CRYSTAL
PRIMVEC
0.010810 6.213631 6.337018 
6.218077 0.021067 6.326450 
4.176296 4.166357 -0.016830 
PRIMCOORD
36 1
Li	      0.12993      6.15703      6.33152         0.002734     -0.001280      0.017482
Li	      2.18893      6.23627      8.27038         0.095224      0.030806      0.038412
Li	      4.13165      8.23880      8.36292        -0.056614     -0.015529      0.009230
Li	      4.11454      0.04165      4.20774         0.000848      0.055402     -0.129206
Li	      6.27325      6.20666      4.24703        -0.005567     -0.022437      0.016646
Li	      8.28556      6.18245      6.31325         0.010255     -0.065562      0.025127
Li	      2.11531      6.23990      4.39090         0.015064      0.017771     -0.008321
Li	      2.02851      4.29183      6.37797        -0.020388      0.061636      0.059500
Li	      4.06088      6.28712      6.41563         0.075964      0.048126      0.072699
Ti	      6.31095      8.24957     10.47413         0.084839      0.037666     -0.232240
Ti	      4.22374      6.14065      2.08058         0.071529     -0.264446      0.047737
Ti	      4.05934      4.11323      4.32324        -0.090559     -0.145281      0.055307
V	      6.19363      6.27399      8.37407         0.210032     -0.004117     -0.125606
Cr	      6.26462      4.17478      6.31171         0.039556      0.063061      0.011339
Fe	      4.19882      8.31269      4.33644        -0.074435     -0.109196     -0.228377
Co	      8.34478      4.18953      8.38028        -0.008879     -0.142773      0.012292
Cu	      2.17053      8.21786      6.36343         0.083662      0.131486      0.010617
Ni	      4.10349      4.21768      8.36906         0.023476      0.002279     -0.083818
O	      1.92205      2.12088      2.19917        -0.052722      0.367018      0.012294
O	      4.20454      4.27019      2.22834         0.063316      0.100672      0.066676
O	      4.27233      2.21247      4.19295         0.030313      0.164551      0.116112
O	      6.15380      4.06597      4.31797        -0.010629     -0.074834      0.043021
O	      6.18106      2.11571      6.34159        -0.139065     -0.016258     -0.052880
O	      8.23509      4.04693      6.34832         0.011768      0.042253      0.527797
O	      2.13707      4.13595      4.20432         0.094076      0.060898     -0.297266
O	      4.15666      6.23300      4.06224        -0.020904     -0.092680     -0.003778
O	      4.19774      4.20702      6.20810        -0.002988     -0.048730     -0.271312
O	      6.30233      6.13909      6.43478        -0.044900     -0.104130     -0.242059
O	      6.16884      4.12511      8.41337         0.033527     -0.066238      0.024539
O	      8.34425      6.27500      8.39624         0.184998     -0.361681     -0.092271
O	      2.10132      6.31504      6.34158        -0.029705     -0.153210     -0.031225
O	      4.18523      8.31952      6.17410         0.038403      0.055686      0.242744
O	      4.27943      6.22770      8.44553        -0.338737      0.119560      0.008845
O	      6.24979      8.32942      8.54101        -0.150283      0.103966      0.318881
O	      6.24589      6.27074     10.46671         0.023452      0.203278      0.049484
O	      8.25472      8.33953     10.42244        -0.146662      0.022267      0.011578
