# total energy = -234.58043291 eV
 
CRYSTAL
PRIMVEC
0.034918 6.335774 6.236625 
6.349354 0.028544 6.243038 
4.249924 4.245225 0.002131 
PRIMCOORD
36 1
Li	     10.52353     10.37346     12.35260        -0.074956      0.090012     -0.036401
Li	      2.39270      8.55598      6.14429        -0.045376      0.002881     -0.061305
Li	      4.27460      8.46687      8.14429        -0.031701      0.030686      0.086328
Li	      4.43424      6.36540     10.48072         0.064367      0.107467     -0.001004
Li	      6.39141      8.32410     10.44029        -0.045878     -0.054093      0.096507
Li	      8.48826      4.22883      8.28129        -0.008614     -0.013877      0.012721
Li	      4.28158      8.59070      4.38682         0.016741      0.026466     -0.103277
Li	      6.14677      8.44383      6.21212        -0.010305     -0.032710      0.007162
Li	      4.29227      6.59449      6.21402        -0.022415      0.065763     -0.050455
Ti	      2.17546      6.31519      8.11196         0.045869     -0.058948     -0.248974
Ti	      6.34959      2.09435      8.26185        -0.074596     -0.086333     -0.264227
Ti	      8.49600      8.53469      8.43810        -0.085245      0.058157      0.416818
V	      4.21491      4.22550      4.20494        -0.061909     -0.004354      0.080950
Cr	      2.11859      2.17999      4.19722         0.079806     -0.016806      0.028733
Fe	      6.47407      4.25429      6.20381        -0.025621      0.031278     -0.096159
Co	      8.51641      6.31499      6.22351         0.039975     -0.008101      0.056608
Ni	      2.04508      6.32603      4.26386         0.140643     -0.059612      0.054919
Ni	      6.34632      6.39724      8.35949         0.019202      0.005380     -0.176659
O	      1.99021      2.01387      2.18004        -0.110841     -0.014511     -0.086907
O	      4.37044      4.36378      2.09955         0.020078      0.085181      0.037699
O	      4.12741      2.23816      4.12050        -0.060404     -0.113264      0.117364
O	      6.26755      4.35710      4.16335         0.044449      0.024598     -0.022948
O	      6.38049      2.20990      6.36921        -0.140170     -0.036462      0.134246
O	      8.39353      4.29282      6.26594         0.168377      0.520027     -0.023383
O	      2.22817      4.19777      4.14044        -0.038125     -0.090393      0.042916
O	      4.28765      6.29314      4.07936         0.082825      0.074230     -0.013085
O	      4.37292      4.16146      6.30378        -0.033289     -0.499329     -0.122684
O	      6.39478      6.29404      6.25356         0.201036     -0.026397     -0.079179
O	      6.27062      4.18284      8.27605        -0.034063     -0.141158      0.034058
O	      8.58464      6.44815      8.38069         0.077324      0.023567     -0.000541
O	      2.14881      6.36760      6.33232         0.042223     -0.012130      0.346767
O	      4.26707      8.46635      6.27812        -0.024141     -0.003698      0.004938
O	      4.16073      6.23642      8.34521        -0.098372     -0.148128     -0.064082
O	      6.51439      8.58890      8.30752         0.128028      0.184411     -0.031955
O	      6.42047      6.38085     10.30019        -0.170752     -0.049823      0.243202
O	      8.50358      8.42265     10.26624         0.025830      0.140025     -0.318709
