# total energy = -233.92803930 eV
 
CRYSTAL
PRIMVEC
0.030125 6.282693 6.232634 
6.307645 0.018655 6.244149 
4.222530 4.213621 -0.004944 
PRIMCOORD
36 1
Li	      4.24363      4.18790      0.04827        -0.001743     -0.002811      0.051077
Li	      2.13297      6.27888      8.21486        -0.003564     -0.021812     -0.031097
Li	      8.46113     10.50481     10.39459         0.003751     -0.007544     -0.037307
Li	      6.37983      2.22017      8.28189        -0.007552      0.065407      0.031916
Li	      8.34863      4.18288      8.31113         0.009742      0.013394      0.018013
Li	      6.31647      6.31144      4.17494        -0.017408     -0.055115      0.009132
Li	      6.33160      4.19875      6.33754        -0.014195     -0.009222      0.020923
Li	      2.12769      4.22386      6.25187         0.008813      0.020503      0.028409
Li	      4.32908      4.24285      8.25554         0.054830      0.002211     -0.024463
Ti	      6.41802      2.22871      4.18842         0.103123      0.212276     -0.010193
Ti	      4.16461      4.24204      4.13278        -0.042917      0.049567     -0.195435
Ti	      8.37928      6.19229      6.33295         0.038162     -0.399287      0.071941
V	      4.08738      2.11055      1.97699         0.111630     -0.006988      0.086294
Cr	      6.30575      6.26189      8.31215         0.001070     -0.011024      0.019844
Fe	      2.12837      6.29581      4.26823        -0.023493      0.032907     -0.296501
Cu	      8.35530      2.19694      6.36721        -0.074665      0.044890      0.216195
Ni	      0.03829      4.19037      4.16304         0.017509      0.000579      0.059838
Ni	      4.26320      6.27097      6.23035         0.029945     -0.066280      0.044666
O	      2.30854      2.07797      2.19049        -0.242524      0.007438     -0.144256
O	      4.25207      4.09305      2.17259        -0.055104      0.023807      0.110154
O	      4.26517      2.20367      4.15664        -0.000706      0.000344      0.102428
O	      6.23283      4.09081      4.13662        -0.073949     -0.229922      0.022455
O	      6.14671      2.09778      6.11668        -0.014435      0.006252     -0.053482
O	      8.41908      4.35716      6.19358        -0.026449      0.320488      0.028413
O	      2.21785      4.26972      4.12876         0.196021     -0.046823      0.030183
O	      4.20426      6.23493      4.13367         0.039993     -0.118604     -0.114234
O	      4.21828      4.13451      6.08829        -0.004291     -0.116942     -0.053714
O	      6.41129      6.29660      6.28391         0.163871      0.003018     -0.024280
O	      6.32193      4.28434      8.40501         0.035327     -0.009982     -0.197087
O	      8.36459      6.34169      8.23859        -0.005728      0.005620     -0.097081
O	      2.19208      6.29427      6.15541        -0.109725      0.100672      0.233480
O	      4.35151      8.34898      6.26574         0.007572      0.138607     -0.125599
O	      4.30481      6.38217      8.26230         0.014408     -0.115349      0.180392
O	      6.16024      8.31622      8.45412         0.121906     -0.023891      0.038671
O	      6.41326      6.33890     10.33992        -0.089098      0.142579      0.006706
O	      8.34825      8.37606     10.29785        -0.150127      0.051037     -0.006401
