# total energy = -233.59491070 eV
 
CRYSTAL
PRIMVEC
0.008749 6.164760 6.356851 
6.338687 -0.022209 6.388430 
4.224916 4.129819 -0.014278 
PRIMCOORD
36 1
Li	      4.27588     10.15384      6.35712         0.018396     -0.046258      0.003103
Li	      2.16631      6.11306      8.43360         0.060359     -0.044341      0.028970
Li	      4.23368      8.24956      8.39071        -0.001449      0.018534     -0.007057
Li	      2.18071      2.11847      4.29163         0.041293     -0.010925      0.008502
Li	      4.15229      4.10795      4.32588         0.034599      0.030236     -0.034314
Li	      4.17285      2.11407      6.35945        -0.047006     -0.001059      0.001855
Li	      4.31158      8.22924      4.36859         0.065622     -0.011863      0.037431
Li	      2.11759      4.15302      6.25881        -0.035924     -0.039083     -0.047766
Li	      8.40115      8.22551      8.43987        -0.047730      0.018470      0.018482
Ti	      6.20917      2.05998      4.27577        -0.425444      0.083225     -0.139025
Ti	      4.23778      6.10538      2.20283         0.118827     -0.227443      0.905570
Ti	      6.19085      6.21481      8.45921        -0.497834      0.205025     -0.201351
V	      6.26132      4.12925      6.33458         0.092907      0.173941     -0.091994
Cr	      2.14749      8.17701      6.32870         0.095717      0.034493      0.022213
Fe	      2.16113      4.11409      2.19454         0.022210     -0.047391     -0.153862
Cu	      2.14353      6.13999      4.29666         0.108774     -0.049953      0.008457
Cu	      4.18922      6.18899      6.31824         0.032726     -0.102295      0.041305
Ni	      8.45320      4.08727      4.29838        -0.085714      0.076921     -0.034249
O	      1.99412      2.09964      2.00364        -0.065421     -0.045438     -0.070267
O	      4.16314      4.22502      2.04658         0.055254      0.266630     -0.005638
O	      4.34164      2.04100      4.29940         0.334758      0.097326      0.042340
O	      6.39933      4.01823      4.31335        -0.133489     -0.178082     -0.032528
O	      6.37328      2.04821      6.31971         0.071842     -0.174589      0.055606
O	      8.34044      4.02781      6.40440         0.064248     -0.082700      0.143813
O	      2.14203      4.17807      4.12233         0.008350     -0.059156      0.081283
O	      4.38834      6.22080      4.00131         0.019274     -0.045933     -0.898316
O	      4.36689      4.21768      6.36208        -0.311625     -0.023740     -0.011282
O	      6.34024      6.20796      6.52077         0.170589      0.187091      0.272203
O	      6.40688      4.13406      8.38695        -0.000638     -0.041187      0.108447
O	      8.52065      6.14181      8.49428         0.000039      0.055678     -0.196309
O	      2.16817      6.17343      6.30383        -0.094125      0.027579      0.106588
O	      4.12302      8.16044      6.35417        -0.067346      0.077161     -0.023654
O	      4.35118      6.13244      8.62954         0.427740     -0.008120     -0.061388
O	      6.36301      8.12913      8.63908        -0.029726     -0.173316      0.134619
O	      6.27728      6.21427     10.50153         0.011506      0.062824     -0.058400
O	      8.34208      8.14745     10.70494        -0.011559     -0.002262      0.046614
