# total energy = -231.81345294 eV
 
CRYSTAL
PRIMVEC
-0.012903 6.154913 6.534151 
6.381847 0.024757 6.496607 
4.264411 4.088494 0.006906 
PRIMCOORD
36 1
Li	      6.36761      6.16064     12.81248        -0.017064      0.092622     -0.120121
Li	      6.33708      2.23191      8.73981        -0.004978      0.000025      0.066348
Li	      8.25727      4.13059      8.91359        -0.030917      0.001997      0.020069
Li	      6.33053      4.14380      6.88793        -0.017018      0.031207     -0.038490
Li	      6.43665      4.06494     10.67097         0.000086      0.010706     -0.040366
Li	      8.44852      6.10540     10.73052        -0.086470      0.055060     -0.026880
Li	      2.08646      4.08678      6.35666         0.080839     -0.023492      0.005447
Li	      4.52484      4.08137      8.77530         0.062301     -0.014384      0.039885
Li	      6.46337      5.99965      8.75811         0.057315     -0.012308      0.023053
Ti	      8.36173      2.11984      6.42430        -0.716015      0.123741     -0.240771
Ti	      6.31472     10.18496      8.57861         0.105107      0.024195     -0.093101
Ti	      8.40909      6.16738      6.78801        -0.237968      0.108603      0.141532
V	      4.19256      8.25399      8.59705         0.058537     -0.168807     -0.647364
Cr	      4.23363      4.12228      4.37843        -0.032943      0.176612      0.186491
Fe	      4.38088      6.16981     10.80638         0.270072     -0.104429      0.080699
Cu	      6.43707      8.22894     10.82061         0.108298      0.134617     -0.160838
Cu	      6.33871      6.19821      4.41805        -0.159464     -0.201142     -0.045608
Cu	      4.34587      6.11429      6.53168         0.084231     -0.131106      0.009217
O	      2.16018      2.02101      1.92966         0.342565     -0.083428     -0.158689
O	      4.38149      4.10454      2.32383         0.060308     -0.350902     -0.046705
O	      4.07950      2.04559      4.20064        -0.033892      0.091824     -0.529758
O	      6.38773      4.11629      4.12596        -0.049979      0.277186      0.182983
O	      6.45066      2.08997      6.38261         0.296269      0.070453      0.403653
O	      8.54726      4.14087      6.33682         0.064397     -0.056180      0.044933
O	      2.25564      4.08067      4.38335         0.158452      0.184622      0.035719
O	      4.38082      6.07202      4.56566         0.022987     -0.089032     -0.374377
O	      4.31826      3.99190      6.40157        -0.021904     -0.328107     -0.062929
O	      6.58289      6.14876      6.66219         0.456008      0.036948      0.139482
O	      6.38828      4.09603      8.77207         0.017487     -0.005058     -0.010113
O	      8.57657      6.15135      8.56112         0.001356      0.005142     -0.140311
O	      1.99381      6.24581      6.65726        -0.104817      0.004313      0.197029
O	      4.11149      8.13269      6.66423         0.153708      0.343912      0.898750
O	      4.07258      6.16917      8.71860        -0.138614      0.282597      0.316008
O	      6.24409      8.29666      8.72008        -0.558910      0.169568     -0.180138
O	      6.30427      6.31627     10.79475        -0.204731     -0.495917      0.001118
O	      8.62140      8.29395     11.03684         0.015363     -0.161661      0.124141
