# total energy = -231.38821676 eV
 
CRYSTAL
PRIMVEC
-0.028604 6.358726 6.362758 
6.288869 -0.001175 6.335391 
4.198256 4.226654 -0.006549 
PRIMCOORD
36 1
Li	      2.23475      8.31989      6.19016         0.011291     -0.022596      0.060721
Li	      2.17919      6.25256      8.41201        -0.042343      0.007867     -0.025552
Li	      4.28553      8.36184      8.36640        -0.004811      0.005854      0.020992
Li	      6.42639      8.39377     10.40804        -0.052035      0.001644     -0.033439
Li	      4.22631      4.22612      4.20614        -0.047056     -0.031178     -0.038470
Li	     10.31546      8.54657     10.68436         0.053964     -0.018553      0.034105
Li	      8.25380      6.51995     10.68221         0.011104      0.005109     -0.001613
Li	      4.01588      6.48983      6.50414         0.026521      0.005899      0.038776
Li	      8.27912      8.57526      8.62925         0.022379     -0.022795     -0.026343
Ti	      4.11113      6.29533      2.21850        -0.081827     -0.246321      0.146623
Ti	      2.08326      2.13826      4.13517         0.053644      0.300827     -0.157276
Ti	      4.24092      2.15311      6.26943         0.037878      0.047270     -0.207618
V	      6.23319      4.25270      6.33053         0.050780      0.010583     -0.019899
Cr	      6.22628      8.53942      6.40116         0.060048      0.020539     -0.238533
Fe	      2.09614      4.20988      2.20093         0.162910     -0.017005      0.018687
Ni	      0.02980      6.29770      6.28455        -0.014138      0.028380      0.081749
Ni	      8.39879     10.47172     10.50617        -0.081182      0.116479      0.096646
Ni	      6.20888      6.41632      8.55696         0.134863     -0.064813     -0.073617
O	      1.97852      2.08086      2.24023        -0.151656     -0.061017      0.211235
O	      4.13439      4.39483      2.04969        -0.026575      0.291772      0.036133
O	      4.07686      2.09892      4.33884        -0.097150     -0.018674      0.206518
O	      6.28342      4.39232      4.35828        -0.035078      0.042063     -0.077491
O	      6.17076      2.14436      6.42745        -0.215969      0.037818      0.059385
O	      8.30818      4.37286      6.32475        -0.006147      0.141666     -0.069952
O	      2.10841      4.06561      4.33237        -0.028819     -0.308764      0.155524
O	      4.27975      6.33406      4.08726         0.091550      0.010138     -0.254141
O	      4.20767      4.10379      6.30991        -0.053333     -0.156448      0.003171
O	      6.37599      6.37311      6.31645         0.054095      0.019099     -0.054798
O	      6.34737      4.12451      8.32316        -0.157861     -0.054874      0.148767
O	      8.44232      6.36420      8.34011         0.224252      0.041385     -0.054284
O	      2.06707      6.24204      6.34558         0.080206      0.017416      0.011220
O	      4.27415      8.50071      6.37178         0.009998     -0.114249      0.019620
O	      4.22873      6.34676      8.52581        -0.100496     -0.017854     -0.086203
O	      6.28652      8.42326      8.33800         0.016019      0.052431      0.065452
O	      6.21970      6.36700     10.57700         0.097486      0.015784      0.034969
O	      8.34322      8.51697     10.60561        -0.002512     -0.064885     -0.031068
