# total energy = -92.54493658 eV
 
CRYSTAL
PRIMVEC
-0.001333 2.067690 2.073716 
6.058805 -0.025963 -2.051951 
-2.082819 6.268818 -4.211754 
PRIMCOORD
16 1
Li	      2.03343      2.02535      0.06043        -0.008231      0.008210     -0.024239
Li	      4.02121      2.06588     -2.07406         0.000982     -0.000347     -0.000029
Li	     -0.05107      4.20041     -0.08235         0.009216     -0.007278      0.023430
Li	     -0.05028      6.24715     -2.11692         0.000855     -0.000313     -0.000244
Mn	      0.04928      0.01349     -0.01124         0.004203      0.048450     -0.032473
Mn	      1.93437      4.14439     -2.08458        -0.005071     -0.046289      0.031864
Ni	      4.10174      4.12478     -4.13199         0.033447      0.044513     -0.062210
Ni	      1.85786      6.27601     -4.22755        -0.034618     -0.045181      0.063177
O	      0.05181      4.14833     -2.09484         0.162983      0.021543     -0.003760
O	     -0.00491      1.93468      0.14270         0.006628     -0.025764      0.017166
O	      3.95849      6.29562     -4.24487         0.098775      0.075055     -0.069159
O	      3.89920      4.20365     -2.13931        -0.054790     -0.145258      0.108320
O	     -0.15098      6.27841     -4.21263        -0.163243     -0.021278      0.001819
O	      4.14194      1.99605      0.06522         0.055368      0.145741     -0.107372
O	      1.99976      6.17282     -2.04094        -0.098887     -0.076629      0.069452
O	      1.98863      2.22321     -2.23854        -0.007618      0.024826     -0.015743
