# total energy = -89.45018233 eV
 
CRYSTAL
PRIMVEC
1.909601 3.956249 1.944457 
3.942910 -4.019003 0.001468 
3.927911 -0.013582 -3.970710 
PRIMCOORD
16 1
Li	      3.73962      3.73742     -0.05406        -0.520962      0.743240      1.028389
Li	      3.74299      1.81544      1.79632        -0.185123      0.969447      0.849203
Li	      3.71090      0.02161     -0.00094        -0.308124     -0.894639     -0.064291
Li	      3.74052     -1.86145     -1.87352        -0.024408     -0.778332     -0.234890
Mn	      9.31457     -0.07121     -1.93289         5.199768      0.123196     -2.276156
Mn	      1.88052      1.88585     -0.04472        -5.114679      1.560808      1.811590
Ni	      3.69955      1.87001     -1.89532        -1.371293      1.416660     -2.285425
Ni	      5.64240     -0.02817     -1.87898         1.010499      0.848224     -0.927950
O	      5.57556     -0.18620      0.03686         0.542467      0.147110      2.028132
O	      5.61676     -1.88515     -1.77027         0.766896     -2.191908     -2.335127
O	      3.58783      1.85115     -0.03935         3.280319      0.741889      1.828799
O	      3.78321     -0.00767     -2.04686        -2.287496     -1.174183     -0.061944
O	      7.56157     -0.08189     -1.92796        -0.304014      0.304452      0.074466
O	      3.81562     -2.08081     -0.01798        -1.118292     -1.176969      0.751726
O	      5.60306      1.94535     -2.01616         1.627333      1.286994      0.005388
O	      1.77970      0.10643      0.02543        -1.192891     -1.925989     -0.191909
