# total energy = -238.01693269 eV
 
CRYSTAL
PRIMVEC
0.011450 6.310756 6.294393 
6.260476 -0.021211 6.327400 
4.173063 4.228794 -0.013778 
PRIMCOORD
36 1
Li	      4.26384     10.34673      6.27755         0.037007      0.167999      0.020122
Li	      2.35047      8.36802      6.25881        -0.215669      0.014682      0.009333
Li	      4.19351      8.40310      8.25054         0.031076      0.012636      0.143608
Li	      6.28690      8.37264     10.45593        -0.003062      0.019071      0.015831
Li	      4.11888      4.26421      4.17255         0.062172      0.003487     -0.028246
Li	      4.21979      8.37663      4.37635        -0.034361      0.006980     -0.154149
Li	      4.11735      6.52676      6.24957        -0.032304     -0.148426     -0.016617
Li	      8.31307      8.42782      8.45587        -0.007252     -0.006653      0.009123
Li	      6.23327      6.40371      8.41899        -0.002022     -0.014637      0.050298
Ti	      4.35215      6.13533     10.41591         0.223130     -0.133289     -0.294417
Ti	      8.36155      6.30039      6.33065         0.331830      0.125782      0.127066
Ti	      6.16085      4.21213      6.34530        -0.199399     -0.208440      0.140349
V	      6.22058     10.45638      8.29735         0.118625      0.816322      0.926183
Cr	      6.22648      6.34246      4.20151        -0.111539     -0.106610     -0.220143
Fe	      4.17173      6.30751      2.15259        -0.030338      0.082566     -0.235525
Fe	      2.18602      4.17503      2.10954         0.018892     -0.094405     -0.084713
Co	      6.18354      8.49948      6.29346        -0.070249      0.277239      0.091645
Ni	      8.32495      6.35337     10.55835         0.015901      0.071719      0.017898
O	      2.12472      1.95637      2.22121         0.075131      0.318481      0.002149
O	      4.23211      4.20012      2.07497        -0.280705      0.000088     -0.039619
O	      4.07792      1.97408      4.38256         0.034439      0.015129      0.115348
O	      6.31323      4.28207      4.22144         0.024211      0.041927      0.322475
O	      6.10723      2.22539      6.30174        -0.111976      0.127551     -0.093274
O	      8.23876      4.28787      6.21464         0.023095     -0.015512     -0.021583
O	      2.11718      4.16242      4.22760        -0.175448      0.009404      0.673715
O	      4.17661      6.32309      4.16130         0.149787      0.048027      0.338108
O	      4.23327      4.07661      6.30018        -0.269851     -0.070317     -0.061195
O	      6.29648      6.21034      6.24833        -0.105644      0.426106     -0.002192
O	      6.33195      4.20841      8.18810         0.016278     -0.030154     -0.272774
O	      8.27605      6.33889      8.30000        -0.061107     -0.022196     -0.132270
O	      2.10485      6.39801      6.38566        -0.061798     -1.001338     -0.808564
O	      4.25966      8.43022      6.31502         0.810417      0.003060     -0.058917
O	      4.10560      6.28576      8.54717         0.246468      0.072910      0.236266
O	      6.27545      8.64231      8.41512        -0.098839     -0.994111     -0.859272
O	      6.20886      6.33134     10.48188        -0.410108     -0.064907      0.053321
O	      8.36402      8.50058     10.51668         0.063211      0.249831      0.090634
