# total energy = -235.75817135 eV
 
CRYSTAL
PRIMVEC
-0.012501 6.306331 6.352099 
6.420667 -0.054858 6.395284 
4.244384 4.196941 -0.000829 
PRIMCOORD
36 1
Li	      6.32909      4.21973      2.11675        -0.026758     -0.020084      0.014189
Li	      4.25379      6.24130      2.39840         0.061020     -0.013986     -0.095493
Li	      6.14523      6.43889      4.22981         0.012822     -0.052525     -0.061826
Li	      4.09130      4.41285      4.21888         0.025628     -0.069311     -0.027412
Li	      8.43570      6.31502      6.42867        -0.021961      0.031853      0.007414
Li	      4.41453      8.14308      4.25264         0.008814      0.017268     -0.001566
Li	      2.36772      6.15565      4.21568        -0.000595      0.025806      0.005850
Li	      2.16930      4.16141      6.12281         0.042108     -0.004353     -0.029097
Li	      4.25653      6.27462      6.08887         0.011508     -0.023509      0.052253
Ti	      2.19338      8.29641      6.46304        -0.013805     -0.051128      0.352129
Ti	      6.31646      2.09146      4.22636        -0.174284      0.055825     -0.064260
Ti	      6.27217      4.31560      6.41570        -0.101283      0.222958      0.028256
V	      4.25395      4.22012      0.04350        -0.145652      0.076334     -0.226631
Cr	      8.52243      4.15489      4.27445        -0.042740     -0.007567      0.191904
Fe	      4.24919      8.37088      8.46795         0.020562     -0.037199      0.038986
Fe	      8.54686      8.26135      8.51911        -0.090931      0.129402      0.067102
Cu	      2.16548      4.29610      2.32324        -0.019717     -0.006497     -0.216415
Ni	      6.41285      6.24743      8.50378         0.034790      0.039353      0.071325
O	      2.11437      2.09362      1.96293        -0.089705     -0.133922     -0.393768
O	      4.25631      4.12118      1.97532         0.129030      0.027775      0.173093
O	      4.42954      1.97623      4.29246         0.140508      0.076884      0.030527
O	      6.48688      4.05463      4.39149        -0.006512     -0.082814      0.039620
O	      6.54697      2.10096      6.24996         0.033334     -0.089547     -0.022874
O	      8.53322      4.07084      6.34106        -0.060808     -0.006263     -0.079848
O	      2.13378      4.18697      4.18869        -0.012686     -0.013505      0.137396
O	      4.26118      6.27337      4.24154         0.010856     -0.001676      0.016272
O	      4.41360      4.15471      6.47061         0.151157      0.065987     -0.058179
O	      6.42237      6.13546      6.39860        -0.059105     -0.145938     -0.082319
O	      6.33393      4.16739      8.35780         0.042670     -0.100463     -0.060452
O	      8.43342      6.33796      8.49719         0.100961     -0.140596      0.012239
O	      2.00289      6.42498      6.33190         0.168584      0.067487     -0.016264
O	      4.09173      8.45673      6.30700        -0.039674     -0.079785     -0.098112
O	      4.33253      6.23728      8.64483        -0.119996      0.027412     -0.073634
O	      6.47548      8.36016      8.62836         0.022448      0.127710      0.196467
O	      6.27994      6.39948     10.69752         0.005648      0.071959      0.081350
O	      8.40766      8.45027     10.61022         0.003761      0.016654      0.091777
