# total energy = -235.68685735 eV
 
CRYSTAL
PRIMVEC
0.007129 6.293849 6.328453 
6.250255 0.006860 6.328826 
4.166197 4.195496 0.005190 
PRIMCOORD
36 1
Li	      4.14289      2.10463      2.16757         0.028349     -0.060353      0.016523
Li	      4.18969      6.27550     10.53389        -0.044751      0.005146     -0.041341
Li	      4.12350      6.34402      2.28664        -0.035072      0.039603     -0.049773
Li	      2.07811      4.23338      2.23801        -0.030221      0.050341     -0.093569
Li	      4.01654      4.28546      4.16483         0.079626     -0.029261     -0.057473
Li	      0.14535      4.09805      4.07984        -0.029469     -0.015977     -0.059839
Li	      2.17820      6.16731      4.12266        -0.018126      0.043586     -0.102036
Li	      2.08518      4.20551      6.05105         0.028928      0.013786      0.064329
Li	      8.38018      8.38957      8.66154         0.042098     -0.004090     -0.024648
Ti	      4.16457     10.28855      6.22482        -0.126470     -0.079814      0.286178
Ti	      6.23439      4.17855      2.24737         0.170767     -0.020138      0.172759
Ti	      4.13990      2.32503      6.34713         0.073057      0.255612      0.690506
V	      6.25226      6.30603      8.53570        -0.218442      0.012742      0.366121
Cr	      4.17408      6.28515      6.26748         0.002919     -0.085027      0.251054
Fe	      8.27172      8.39380     12.58787        -0.003400     -0.071983      0.235668
Fe	      6.32022      4.20305      6.37851        -0.057589     -0.021734     -0.109671
Cu	      6.20824      2.10884      4.23030        -0.069561     -0.064190      0.068201
Cu	      2.05667      2.23930      4.09920         0.112123     -0.145076     -0.056639
O	      2.08001      1.90878      1.90832        -0.037327     -0.110619     -0.104719
O	      4.33777      4.13055      1.93557         0.125842     -0.001785     -0.183815
O	      4.20373      2.10422      4.43535        -0.183423     -0.001928     -0.179358
O	      6.28758      4.41332      4.14569        -0.032090      0.085538     -0.060746
O	      6.17207      2.01362      6.33767        -0.051875     -0.136723     -0.041129
O	      8.47298      4.20103      6.37271         0.284479     -0.094817     -0.115987
O	      2.11551      4.12565      4.14640         0.011428      0.026145      0.030580
O	      4.19426      6.30147      4.32843         0.042007      0.043695      0.036684
O	      4.18954      4.21427      6.30863        -0.132981     -0.224171     -0.116218
O	      6.27971      6.36675      6.46065        -0.056327      0.151744      0.514726
O	      6.25052      4.33462      8.37069         0.020277     -0.000884      0.100180
O	      8.26657      6.34078      8.31536         0.625348      0.007302     -0.578781
O	      2.09473      6.25922      6.38125        -0.071244     -0.013883     -0.105934
O	      4.11070      8.37046      6.30616         0.030363      0.275251     -0.044907
O	      4.15659      6.29892      8.34274        -0.743100     -0.038164     -0.101039
O	      6.24276      8.41133      8.58301        -0.044416      0.315595     -0.326247
O	      6.25824      6.16823     10.66564         0.057496     -0.048995     -0.143468
O	      8.16589      8.42525     10.69551         0.250775     -0.056477     -0.136171
