# total energy = -237.81692405 eV
 
CRYSTAL
PRIMVEC
-0.042386 6.315517 6.245655 
6.359103 -0.038039 6.241567 
4.217715 4.186300 -0.003915 
PRIMCOORD
36 1
Li	      2.06531      0.08597      2.05256        -0.088373      0.083487      0.029708
Li	      4.15575      2.11749      2.05076        -0.047171      0.040873      0.000608
Li	      0.04491      2.11951      2.13652         0.030987     -0.003948      0.052477
Li	      2.10562      4.11846      2.12971         0.032447     -0.015861     -0.006866
Li	      2.05697      2.14799      4.01657        -0.082541     -0.032032     -0.100292
Li	      4.24573      2.08411      6.26074         0.034954     -0.034300      0.027380
Li	      0.06013      4.14786      4.16585         0.054070     -0.060295     -0.019715
Li	      2.11438      6.25864      4.18474         0.060345     -0.017750      0.020373
Li	      2.04655      4.23802      6.20981        -0.057935      0.018108      0.032287
Ti	      6.33033      2.09791      4.13805        -0.034321      0.192177     -0.054895
Ti	      4.02431      4.25180      4.05218        -0.151717      0.150334     -0.382905
Ti	      6.46315      6.20995      8.25271         0.283781     -0.215993     -0.135085
V	      4.16128      6.32711      6.25029        -0.057575      0.084889     -0.001625
Cr	      4.22380      0.01025      4.11611        -0.070103      0.058772      0.015045
Fe	      2.14079      2.06086      0.17156         0.050252     -0.029513     -0.181443
Fe	      6.36100      4.15388      6.30183         0.071606      0.015903     -0.114743
Ni	      4.21653     10.43600      6.33305        -0.017698     -0.034206      0.048163
Ni	      8.43494      8.34689      8.30807         0.034197     -0.019500     -0.056477
O	      2.08844      2.11624      2.02979        -0.008533      0.012667      0.067440
O	      4.21305      4.18989      2.18049        -0.023927     -0.003478      0.457467
O	      4.34950      2.10800      4.17810         0.146962     -0.014759      0.019280
O	      6.38487      4.07005      4.13243         0.041030     -0.149602     -0.093813
O	      6.42033      1.96742      6.12331        -0.007652      0.143953     -0.077270
O	      8.47749      4.10167      6.11012        -0.176580      0.014554      0.042687
O	      2.23011      4.17260      4.16093         0.191402      0.002492      0.044713
O	      4.21150      6.15961      4.23381        -0.027697     -0.155424     -0.134351
O	      4.26428      4.26514      6.17409         0.104988     -0.188708     -0.055853
O	      6.23732      6.32167      6.36683         0.070711      0.019476      0.107070
O	      6.28498      4.28317      8.38698         0.118743      0.212389      0.202905
O	      8.31513      6.30208      8.31188        -0.345678     -0.134885      0.022258
O	      2.09541      6.35619      6.24610         0.091567     -0.033982     -0.037116
O	      4.12570      8.36266      6.21173        -0.016804     -0.011235     -0.020624
O	      4.28191      6.25021      8.32757         0.013304      0.129379      0.138550
O	      6.34151      8.25152      8.44591        -0.080724     -0.029964      0.089083
O	      6.21434      6.37707     10.35792        -0.024778      0.039137     -0.086474
O	      8.29560      8.49744     10.38420        -0.111541     -0.033156      0.142054
