# total energy = -243.29516750 eV
 
CRYSTAL
PRIMVEC
-0.001231 6.366706 6.296393 
6.168605 -0.014937 6.310084 
4.124678 4.265569 -0.021963 
PRIMCOORD
36 1
Li	      6.13824      4.27851      2.07881        -0.018915      0.031890     -0.007184
Li	      2.08538      4.27655      2.10441         0.009287      0.020437     -0.038950
Li	      2.09034      2.14027      4.24829         0.023841     -0.024199      0.082985
Li	      4.04644      4.19723      4.21081        -0.038164     -0.029064      0.020650
Li	      8.15466      6.40839      6.26248        -0.031087      0.004672     -0.016613
Li	      2.08679      6.37550      4.18758         0.039540      0.050891      0.009489
Li	      2.11714      4.18354      6.28237         0.046578     -0.066950      0.018756
Li	      8.19666      8.44486      8.37669        -0.007616     -0.044428     -0.028047
Li	      6.25009      6.41458      8.31012         0.067050      0.034432     -0.021622
Ti	      6.15954      2.24191      4.08961        -0.204797      0.200998     -0.251356
Ti	      0.17538      4.27035      4.13052         0.517095     -0.037747     -0.163313
Ti	      4.12894      6.26196      6.41350         0.227744     -0.353830      0.108166
V	      4.05398      6.33976      2.12983        -0.059940      0.021626     -0.027883
Cr	      0.03728      6.34850      6.30692        -0.020394      0.046243      0.030890
Fe	      4.00111      2.17923      2.08701         0.033083      0.034303      0.037157
Fe	      4.10885      6.35988     10.39613        -0.058690     -0.007276      0.042708
Fe	      6.22250      4.24162      6.34517        -0.062152      0.035233      0.066355
Co	      2.06062      8.47422      6.29572        -0.098387      0.074417     -0.127216
O	      1.92605      2.14071      2.08197        -0.038414     -0.012661     -0.334196
O	      4.12285      4.36053      1.98965        -0.016999      0.036157      0.004054
O	      4.22011      2.12443      4.23037         0.155899      0.021803      0.038054
O	      6.13510      4.11880      4.20419        -0.099553     -0.293126     -0.093035
O	      6.11847      1.99441      6.35020         0.069932     -0.101063     -0.087059
O	      8.28309      4.17672      6.23074         0.167167     -0.380729      0.081182
O	      1.97774      4.25923      4.17310        -0.457777     -0.000415     -0.002935
O	      4.11920      6.52720      4.16917         0.039415      0.066087      0.023310
O	      4.12812      4.40254      6.30422        -0.122046      0.350508      0.042570
O	      6.03196      6.38056      6.30433        -0.205689      0.101393      0.005101
O	      6.17619      4.16193      8.52059         0.008424     -0.003861      0.246611
O	      8.44148      6.39037      8.36602        -0.018132     -0.006739      0.042958
O	      2.10752      6.40844      6.30252        -0.048019      0.298224     -0.005486
O	      4.18343      8.54318      6.17318        -0.017637      0.001642     -0.067629
O	      4.08934      6.38887      8.31060        -0.000944     -0.049392     -0.304845
O	      6.12545      8.45348      8.54336         0.102171      0.073486      0.343724
O	      6.22591      6.29173     10.57708         0.047256     -0.034206     -0.001500
O	      8.16283      8.46406     10.51471         0.070871     -0.058751      0.334152
