# total energy = -239.99237275 eV
 
CRYSTAL
PRIMVEC
0.008501 6.346610 6.329187 
6.167216 0.011196 6.325939 
4.106974 4.224952 0.011948 
PRIMCOORD
36 1
Li	      8.16805      8.46892     12.53239        -0.022538     -0.030454     -0.092568
Li	      6.15055      4.24233      2.16374         0.016042     -0.018962     -0.018495
Li	      8.15702      4.17520      4.25933        -0.028639     -0.004881     -0.004353
Li	      6.23946      2.26580      4.23784         0.000054      0.036463      0.069603
Li	      2.05804      4.19822      2.14031        -0.045483      0.001114      0.025529
Li	      4.08353      4.21999      4.37017         0.019891      0.011847     -0.053025
Li	      4.17301      2.16010      6.26787        -0.015231     -0.034409     -0.057925
Li	      2.05840      6.34853      4.26532         0.049237      0.022510      0.073774
Li	      2.11176      4.27265      6.22905        -0.051404      0.031874     -0.046937
Ti	      6.13394      6.36522     12.47520         0.332347      0.160836      0.081614
Ti	      4.03765      2.23843      2.17306         0.084277      0.474309      0.323862
Ti	      6.23445      6.40220      8.40423        -0.137566     -0.014585     -0.355371
V	      4.12018      6.26475      2.13841         0.075960      0.001162     -0.189223
Cr	      4.09741      4.27097      8.43641         0.096920      0.005355      0.242312
Fe	      6.19166      6.32162      4.33065        -0.195633      0.015938      0.309477
Fe	      4.10426      8.46613      4.29284         0.063008     -0.137266     -0.064779
Fe	      3.94699      6.32726      6.30635         0.583154     -0.064237     -0.373156
Cu	      6.23809      4.17659      6.23743         0.163179      0.012788      0.119348
O	      2.12616      2.07512      2.18773        -0.239074     -0.043062     -0.142326
O	      4.10611      4.18011      2.03435        -0.034387     -0.730844     -0.005293
O	      4.08705      2.17906      4.05468         0.085918     -0.038622     -0.186951
O	      6.17835      4.35483      4.30949         0.017490     -0.065910     -0.084308
O	      6.17792      1.93317      6.46247        -0.091488     -0.173638      0.014065
O	      8.31417      4.22175      6.29407         0.137822     -0.003086      0.015282
O	      1.98282      4.06437      4.24414         0.154603      0.062487     -0.032437
O	      4.14270      6.27794      4.10816        -0.150142     -0.049350      0.126628
O	      4.20438      4.24583      6.43522        -0.162754      0.298899     -0.019580
O	      6.14342      6.43837      6.48671         0.352392      0.107125      0.301395
O	      6.13173      4.20579      8.34959        -0.020750      0.366433      0.100755
O	      8.17295      6.43279      8.45832         0.284388     -0.015488     -0.056453
O	      1.94684      6.31408      6.29292        -0.864480      0.101988     -0.025136
O	      4.08578      8.54498      6.49776        -0.127167     -0.311216      0.051403
O	      4.23405      6.37245      8.45253        -0.070244     -0.026997      0.146428
O	      6.14870      8.34515      8.48630        -0.053456     -0.008107      0.011869
O	      6.18856      6.38975     10.52069        -0.023045      0.037520     -0.096401
O	      8.29006      8.48386     10.42247        -0.183203      0.022466     -0.108626
