# total energy = -240.95589230 eV
 
CRYSTAL
PRIMVEC
-0.018206 6.355468 6.269001 
6.303151 -0.028899 6.279946 
4.197934 4.240103 -0.015168 
PRIMCOORD
36 1
Li	      4.13992      4.22427      0.03282        -0.030754     -0.006618      0.011935
Li	      8.41066      2.16080      6.30114        -0.011483      0.024421     -0.003969
Li	      4.15397      2.13443      2.02058        -0.032222      0.061587     -0.031890
Li	      6.29258      2.15131      8.29739         0.003715      0.011212     -0.048069
Li	      8.31585      4.25867      8.28475        -0.047549      0.046393     -0.014256
Li	      4.17948      4.24461      4.16891        -0.037108      0.030091     -0.016280
Li	      6.33927      4.14567      6.38608         0.064113     -0.071444      0.015782
Li	      6.30109      4.20020     10.42192         0.053334     -0.025954      0.025258
Li	      6.32926      6.19426      8.37176         0.096359     -0.056578      0.020111
Ti	      6.15620      4.27359      1.99270        -0.690166      0.138445     -0.103151
Ti	      8.48531      4.22519      4.26365         0.206930     -0.015302      0.345193
Ti	      6.17110      6.44325      4.14667        -0.290285      0.190702     -0.061914
V	      6.21377      8.44311      6.29713        -0.009627      0.003051     -0.046808
Cr	      6.26573      2.13384      4.18543        -0.002841     -0.013995      0.098176
Fe	      8.46937      6.31133      6.35387        -0.101247     -0.048433      0.013432
Fe	      8.40449      6.33413     10.43521         0.016239     -0.057657      0.104842
Fe	      4.37583      4.18774      8.31722        -0.099019     -0.072769      0.076421
Ni	      4.21831      6.36574      6.32935         0.048841     -0.050860     -0.046459
O	      2.11496      1.98889      2.22925        -0.023773     -0.139438      0.069417
O	      4.34270      4.22588      2.07899         0.572852      0.038247     -0.038551
O	      4.18916      1.97584      4.14096        -0.031412     -0.049400     -0.070724
O	      6.37156      4.23429      4.06655         0.013710      0.028711     -0.025883
O	      6.24795      2.12184      6.12853         0.173424      0.007306     -0.051390
O	      8.39068      4.15722      6.12676         0.026825      0.007600     -0.392239
O	      2.12944      4.10526      4.24708        -0.030504     -0.266471     -0.023955
O	      4.32075      6.32059      4.22516         0.392615      0.018000     -0.080624
O	      4.07307      4.28194      6.34152         0.032358     -0.072308     -0.038421
O	      6.34466      6.35240      6.13687        -0.017215     -0.022138     -0.058039
O	      6.24948      4.22086      8.37291         0.120676     -0.022648      0.052736
O	      8.37870      6.41101      8.45211        -0.009180      0.029356     -0.079116
O	      2.10943      6.32543      6.29792        -0.089255      0.003595      0.188470
O	      4.28410      8.39236      6.27258         0.000193      0.100834     -0.023724
O	      4.10700      6.26285      8.42694        -0.014621      0.062490      0.142190
O	      6.31393      8.60004      8.35842        -0.012876      0.074436      0.045496
O	      6.17777      6.46027     10.43233        -0.245471     -0.029333      0.001956
O	      8.28214      8.56696     10.39669         0.004427      0.144870      0.044049
