# total energy = -245.00435104 eV
 
CRYSTAL
PRIMVEC
-0.032067 6.357521 6.345328 
6.339183 -0.022948 6.336247 
4.204013 4.210004 0.006868 
PRIMCOORD
36 1
Li	      0.02336      6.31411      6.32387         0.016581     -0.020745     -0.029645
Li	      2.15227      8.35407      6.31676         0.108006     -0.138352     -0.034221
Li	      2.08433      6.34747      8.40934         0.032094     -0.016321     -0.039381
Li	      6.25565      6.32009      4.24911        -0.043670     -0.032077      0.042050
Li	      4.20247      4.26645      4.21827         0.022914      0.059141      0.008754
Li	      4.15402      8.45468      4.28683        -0.041447     -0.029375      0.055614
Li	      2.08606      6.35915      4.30244         0.022200      0.054191      0.044754
Li	      4.13777      6.40494      6.31497        -0.018494      0.046067     -0.032415
Li	      6.26690      6.33238      8.50494        -0.099209      0.040324      0.029839
Ti	      4.31859      6.24418      2.26920         0.216010     -0.200341      0.650871
Ti	      8.36791      6.31575      6.34652        -0.164679     -0.024231     -0.043338
Ti	      1.96916      4.39182      6.25094        -0.303823      0.317880     -0.164015
V	      6.34005      8.42402     10.56080        -0.046159     -0.032563     -0.113485
Cr	      6.29658      4.22541      6.33579        -0.041483      0.078759     -0.026031
Fe	      4.14465      2.09923      2.10495         0.024196      0.044391     -0.047022
Fe	      4.25612      6.29011     10.48718        -0.062099      0.036695      0.116266
Fe	      2.08930      4.21996      2.30549        -0.064196      0.054397      0.014193
Fe	      4.18168      4.26698      8.46062         0.005270      0.015028      0.047147
O	      2.04738      2.08592      2.09758        -0.329071      0.030744     -0.048628
O	      4.19325      4.33661      2.10307         0.056661      0.240514     -0.040066
O	      4.29794      2.05528      4.32370        -0.079529     -0.043842      0.184281
O	      6.40364      4.11142      4.34160        -0.035417      0.080303      0.039581
O	      6.22490      2.19200      6.33176        -0.043789      0.025607      0.097733
O	      8.32909      4.33060      6.34958        -0.026223      0.151089     -0.028420
O	      2.08962      4.22824      4.34301         0.015059     -0.014737      0.306775
O	      4.20051      6.33726      4.08383         0.076500     -0.030039     -0.651702
O	      4.21454      4.10874      6.29106         0.031684     -0.146546     -0.050248
O	      6.43837      6.29888      6.33970         0.215255     -0.036830      0.015421
O	      6.31874      4.08227      8.34727        -0.011084     -0.040217     -0.059722
O	      8.54359      6.34828      8.31163         0.012626     -0.051091     -0.166429
O	      2.11213      6.20546      6.31465        -0.019426     -0.326114      0.011284
O	      4.31628      8.43581      6.32780         0.244775      0.005244     -0.084829
O	      4.16847      6.31034      8.53668         0.024651      0.094883     -0.040505
O	      6.23832      8.43551      8.38650         0.088643     -0.033161     -0.057457
O	      6.21749      6.44305     10.57042         0.106188     -0.076538      0.014326
O	      8.33551      8.50482     10.62257         0.110483     -0.082136      0.078672
