# total energy = -228.84668092 eV
 
CRYSTAL
PRIMVEC
-0.006969 6.293008 6.226397 
6.336628 -0.030220 6.249411 
4.203252 4.189641 0.001068 
PRIMCOORD
36 1
Li	      4.23004     10.42186      6.27655        -0.036173     -0.064899     -0.010210
Li	      2.14417      2.06944      0.13531         0.069344      0.029781     -0.024322
Li	      4.03053      2.11641      2.04473        -0.049995      0.039443     -0.123180
Li	      0.09115      2.10600      2.10121         0.035823     -0.027031     -0.026721
Li	      2.10270      4.07446      2.09349         0.003319     -0.037578     -0.012470
Li	      2.05813      2.14097      3.96604        -0.053394      0.000093      0.053824
Li	      6.33862      4.16566     10.37331        -0.009731      0.047154      0.081063
Li	      8.44384      6.24950     10.32338         0.016859     -0.012577     -0.025844
Li	      8.47148      8.28408      8.37891         0.037498     -0.039630      0.011728
Ti	      6.44344      8.30424     10.27604         0.353341     -0.230348     -0.047851
Ti	      4.07680      4.17127      4.01611        -0.293301      0.179024     -0.288113
Ti	      6.38568      4.13246      6.38482         0.205024     -0.022930      0.275297
V	      4.13744      6.38288      6.26175         0.196976      0.050253     -0.065813
Cr	      8.41351      6.29071      6.31072         0.054676     -0.107552      0.235328
Ni	      2.09968      0.11368      2.06890        -0.085759     -0.038864      0.015343
Ni	      4.20280      6.29527     10.33587         0.035688      0.045569     -0.017418
Ni	      6.26605      8.41893      6.27456         0.179208     -0.222033     -0.095495
Ni	      6.37211      6.25115      8.35121        -0.016743      0.002583      0.060190
O	      2.07763      2.06778      2.07239         0.031129      0.154269      0.009407
O	      4.22958      4.19910      2.18933        -0.102776     -0.038495      0.343094
O	      4.30245      2.16474      4.23405         0.019084      0.095313      0.133552
O	      6.27762      4.09431      4.21107        -0.071265     -0.103470      0.085226
O	      6.23278      2.19787      6.16671        -0.003001      0.101768     -0.064584
O	      8.29475      4.27499      6.17100        -0.213490      0.035253      0.112565
O	      2.24325      4.17099      4.21162         0.302797      0.002909     -0.100579
O	      4.23498      6.13229      4.37517         0.017277     -0.132097     -0.074375
O	      4.30201      4.15772      6.18848        -0.043555      0.033255      0.023035
O	      6.33449      6.20640      6.25493        -0.073369      0.014501     -0.007239
O	      6.31981      4.17532      8.21768        -0.022778     -0.082200     -0.279290
O	      8.37672      6.27413      8.24250         0.162930     -0.000469     -0.289606
O	      2.23380      6.24124      6.25058        -0.113535      0.198321      0.005367
O	      4.27229      8.25164      6.21332        -0.315222      0.007983     -0.138889
O	      4.25819      6.26387      8.17127        -0.001471     -0.105810     -0.008077
O	      6.30884      8.39631      8.38209         0.028929      0.058841      0.239486
O	      6.25649      6.39177     10.40482         0.081005      0.291589      0.055460
O	      8.29029      8.42967     10.40387        -0.325351     -0.121923     -0.039889
