# total energy = -256.94299639 eV
 
CRYSTAL
PRIMVEC
0.003009 6.250593 6.312821 
6.345772 -0.037719 6.353700 
4.211539 4.175321 -0.006331 
PRIMCOORD
36 1
Li	      8.41249      2.09233      6.29091         0.028066      0.036812     -0.079919
Li	      6.36282     10.37806      8.46075         0.012703     -0.048459      0.012844
Li	      8.34516      4.15321      4.22770        -0.009095      0.047135     -0.024254
Li	      6.31419      2.21985      4.20259        -0.052958      0.049844     -0.047436
Li	      8.44190      4.11131      8.43048         0.010182      0.035247     -0.030425
Li	      4.26541      4.11166      4.37823         0.018662     -0.048412      0.004344
Li	      6.26339      4.12204      6.26589         0.004536     -0.003258     -0.012725
Li	      2.22362      4.15670      6.33631        -0.029069      0.011923      0.070770
Li	      4.21321      6.10994      6.37922        -0.031095      0.015730      0.058825
Ti	     10.47572      4.13142      6.34054        -0.216612     -0.128484     -0.014995
Ti	      0.07984      2.04657      2.04340        -0.021760      0.010469     -0.146868
Ti	      6.38367      6.11324      4.34771         0.398282     -0.338058      0.140670
Ti	      4.22001      8.36385      4.27293         0.054729      0.032281      0.148674
Ti	      2.15085      6.22662      4.28124        -0.109943     -0.033531      0.282066
Mn	      4.11147      4.25458      8.36874        -0.022376      0.009735     -0.084038
V	      4.21033      8.33109      8.38721         0.282817     -0.097681      0.035749
V	      6.34664      6.20369      8.42163        -0.024505      0.009659     -0.028785
Co	      4.25077      2.11803      6.28900        -0.197947      0.183972     -0.092979
O	      2.04861      2.08884      2.21657        -0.054174      0.006902      0.016801
O	      4.23516      4.19772      2.01916        -0.005048      0.062235     -0.113268
O	      4.08980      2.10683      4.14222        -0.412698     -0.048817     -0.020396
O	      6.33244      4.27579      4.24227        -0.012359      0.467268      0.000763
O	      6.39363      2.02728      6.45283        -0.112539     -0.050246      0.083289
O	      8.60390      4.20432      6.29600         0.406131      0.059690      0.055813
O	      2.02581      4.17427      4.22790        -0.071449     -0.008685      0.029634
O	      4.23763      6.26724      4.16356        -0.031279      0.019213     -0.083990
O	      4.22404      4.10063      6.31628         0.074637     -0.242579      0.165358
O	      6.33798      6.21365      6.25509         0.150599     -0.018025     -0.196663
O	      6.38219      4.02642      8.54708         0.034120     -0.162716      0.046794
O	      8.57333      6.17163      8.55026         0.162693     -0.030058      0.256930
O	      2.01531      6.24789      6.17053        -0.070013     -0.000491     -0.324257
O	      4.18106      8.37012      6.27876        -0.031139      0.163295     -0.253914
O	      4.23925      6.34975      8.40522        -0.092270      0.076337      0.050079
O	      6.21054      8.31457      8.45037        -0.222570      0.088396     -0.051298
O	      6.43504      6.21930     10.57697         0.064664     -0.062715      0.116392
O	      8.55129      8.22415     10.53187         0.128078     -0.063929      0.030409
