# total energy = -260.61916263 eV
 
CRYSTAL
PRIMVEC
-0.002724 6.272438 6.346463 
6.364828 0.006047 6.338207 
4.222472 4.155587 0.024227 
PRIMCOORD
36 1
Li	      0.06102      6.29161      6.34245         0.016510     -0.010503      0.003588
Li	      2.07350      8.27954      6.35764        -0.020893     -0.027602      0.002047
Li	      4.20878      8.34153      8.35336        -0.020290      0.000393     -0.099497
Li	      6.46403      8.27755     10.60492         0.090867     -0.060388     -0.012918
Li	      6.35654      2.15041      8.37548        -0.004382      0.055150     -0.004232
Li	      6.37132      4.13080      6.42867         0.046160      0.006544      0.033004
Li	      8.40955      6.34014     10.64458        -0.016092     -0.017231      0.053248
Li	      4.12858      6.28288      6.43533        -0.052342      0.022336      0.003912
Li	      4.25908      4.20423      8.47189        -0.006755     -0.003189     -0.019292
Ti	      2.11434      6.27742      8.43975        -0.005827      0.021689     -0.076974
Ti	      6.28096      6.18854      4.25531        -0.042620      0.010882     -0.019586
Ti	      4.30937      4.24948      4.20837         0.002289      0.086089     -0.065694
Ti	      4.43920      2.10696      6.37135         0.308785     -0.061987      0.144815
Ti	     10.47310      8.34977     10.66529        -0.208190      0.012531      0.132542
Mn	      8.43717      4.13728      4.28569        -0.026240      0.037160      0.023560
V	      6.34171      8.35154      6.39711        -0.031867     -0.024242      0.000402
V	      6.30071      6.32167      8.39139         0.005210      0.029377     -0.029697
Cr	      2.14777      4.14920      2.10609         0.021695     -0.001259      0.014979
O	      2.11272      2.09204      2.17377         0.018411     -0.023824      0.027698
O	      4.22007      4.16087      2.17969         0.006683      0.008354      0.066219
O	      4.13215      2.17749      4.34110         0.012614      0.075099      0.048883
O	      6.32020      4.12255      4.25218        -0.079311     -0.000599      0.016285
O	      6.24992      2.09561      6.31787        -0.286158      0.006713      0.010100
O	      8.46897      4.26259      6.44230         0.003754      0.116458      0.072725
O	      2.13198      4.16365      4.20432        -0.027360     -0.003054     -0.022886
O	      4.24640      6.26847      4.24937         0.054676     -0.035323     -0.004809
O	      4.23513      4.08515      6.29572         0.033921     -0.105706     -0.011733
O	      6.38085      6.24493      6.31224         0.041142     -0.002783     -0.061079
O	      6.49041      4.23034      8.54945         0.018088      0.021816      0.070098
O	      8.44197      6.19307      8.35084         0.019388     -0.012234     -0.182453
O	      2.09804      6.24104      6.46000         0.000553      0.000172      0.099440
O	      4.25990      8.35265      6.20565        -0.049026     -0.018536     -0.215711
O	      4.14000      6.29620      8.44960        -0.106813      0.002917     -0.047070
O	      6.32004      8.40258      8.47257        -0.006474      0.076945      0.035556
O	      6.36791      6.17141     10.46900         0.075025     -0.136174      0.014597
O	      8.61233      8.28918     10.58060         0.214871     -0.045991     -0.000069
