# total energy = -255.37210096 eV
 
CRYSTAL
PRIMVEC
0.002535 6.381649 6.345684 
6.344361 0.015574 6.332345 
4.213432 4.229523 0.026892 
PRIMCOORD
36 1
Li	     10.43720      4.20960      6.36933        -0.007676     -0.044180     -0.025012
Li	      8.47662      2.23761      6.32846         0.011110      0.009384     -0.016268
Li	      8.41217      4.27675      4.41298         0.001960      0.029776      0.115010
Li	      6.40100      6.31629      4.29286         0.007153     -0.035379      0.004498
Li	      8.33451      6.27706      6.35597        -0.077372     -0.028344     -0.000812
Li	      6.43539      4.33545      6.30220        -0.023993      0.050702     -0.036047
Li	      6.35176      8.42459      6.41759         0.044468     -0.020080     -0.000329
Li	      4.23050      4.24850      8.40028         0.048856     -0.023050     -0.066104
Li	      6.35720      6.41709      8.40966         0.032642      0.022431     -0.024521
Ti	      2.17742      6.29983      8.40531         0.104202     -0.126818     -0.031343
Ti	      6.32436      2.08217      4.27941        -0.061284     -0.005176      0.039611
Ti	      6.31376      2.19413      8.20758        -0.137248      0.065974     -0.195542
Ti	     10.49535      8.59982     10.63627        -0.006075      0.073786      0.086095
Ti	      4.36840      6.30671      6.37662         0.523264     -0.299971      0.031644
Mn	      4.19627      4.16292      4.29542        -0.044888      0.020715      0.087951
V	      8.44758      4.21664      8.36416        -0.040413      0.111444      0.053525
V	      2.07465      6.40168      4.32776        -0.020994     -0.032259     -0.058260
Cu	      4.25741      8.43418      8.43931         0.139367     -0.108231      0.065815
O	      1.93840      2.12087      2.16277        -0.113084     -0.034932     -0.016170
O	      4.26578      4.39368      2.11523        -0.002617      0.065125     -0.051384
O	      4.40224      2.08030      4.32146         0.090418     -0.051333     -0.087891
O	      6.37142      4.15283      4.09897         0.045357     -0.037372     -0.082920
O	      6.35733      2.16442      6.33736         0.012929     -0.034609      0.167474
O	      8.44448      4.24129      6.47640         0.006436      0.008903     -0.008677
O	      1.99415      4.28003      4.13477        -0.068877     -0.056535      0.020104
O	      4.18165      6.47265      4.30166         0.089211      0.038660      0.014590
O	      4.21687      4.43241      6.34451         0.026300      0.315729      0.053191
O	      6.22072      6.39527      6.39015        -0.478367     -0.019331     -0.045142
O	      6.35112      4.15911      8.53829        -0.041561     -0.165526      0.058473
O	      8.57235      6.29140      8.50306         0.170202      0.015456     -0.052659
O	      2.16323      6.37862      6.47133         0.029155      0.029430      0.196693
O	      4.20858      8.40382      6.19062        -0.011458      0.058840     -0.155437
O	      4.11584      6.37845      8.33390        -0.064483      0.004258     -0.096529
O	      6.40988      8.59792      8.56266        -0.043209      0.133633     -0.007869
O	      6.32012      6.36627     10.55012        -0.117189     -0.008242      0.058318
O	      8.46658      8.52482     10.59350        -0.022242      0.077124      0.005927
