# total energy = -257.87425898 eV
 
CRYSTAL
PRIMVEC
0.011618 6.381530 6.286520 
6.425948 -0.055418 6.352785 
4.245968 4.260617 0.001171 
PRIMCOORD
36 1
Li	      0.20178      6.43849      6.35563        -0.010170      0.003848     -0.005145
Li	      2.13060      8.27850      6.36507         0.008066      0.017730     -0.000680
Li	      2.09584      6.45982      8.23380         0.010960     -0.007353      0.016731
Li	      4.25872      6.26688      2.14999        -0.011347     -0.009050     -0.002386
Li	      2.21950      4.24250      2.17252         0.013780     -0.018118     -0.032299
Li	      4.11138      4.41972      4.13463        -0.064654      0.058476     -0.008889
Li	      2.24455      6.31931      4.31467        -0.039118      0.036296     -0.022037
Li	      4.05968      6.42312      6.21178        -0.013824      0.002768     -0.053255
Li	      8.49610      8.45613      8.42895        -0.039669     -0.011203      0.019635
Ti	      4.20711      2.25334      1.93583        -0.281767      0.350755     -0.197779
Ti	      8.50934     10.51902     10.53475         0.006419     -0.222651      0.040043
Ti	      4.37627      2.13577      6.36916         0.044698     -0.064969      0.179967
Ti	      6.36543      4.21621      6.43750         0.055273      0.020155      0.073271
Ti	      6.41551      6.31130      8.39403         0.104454     -0.059980      0.021380
Mn	      6.29878      6.38629      4.16840        -0.050213      0.013285     -0.049114
V	      6.45601      8.44174     10.55056         0.086473     -0.046894      0.028720
V	      4.28079      8.45537      4.18682        -0.029503      0.002993     -0.009357
Fe	      2.17773      4.44240      6.30561         0.055881     -0.145386     -0.029717
O	      2.33860      2.07902      2.09173         0.328901      0.026158     -0.041187
O	      4.29351      4.08286      2.14167        -0.040980     -0.344135     -0.030287
O	      4.31635      1.98263      4.27179        -0.022763     -0.062352      0.024378
O	      6.52396      4.18501      4.33872         0.155918      0.038203      0.035078
O	      6.36877      2.14212      6.41178        -0.138012      0.103254      0.004087
O	      8.45584      4.34292      6.23614        -0.067604      0.081644     -0.085095
O	      2.01219      4.27719      4.18438         0.018558     -0.012092     -0.087371
O	      4.21199      6.49576      4.14930        -0.015057     -0.052647      0.007142
O	      4.38655      4.14321      6.28857         0.147552     -0.112783      0.030195
O	      6.48482      6.32690      6.35918         0.027802      0.018017      0.086359
O	      6.41363      4.26029      8.42093        -0.027948      0.081969     -0.157815
O	      8.40278      6.33700      8.29574        -0.086434      0.033340     -0.193045
O	      2.14119      6.36531      6.29225         0.026674      0.131079      0.037734
O	      4.25862      8.48764      6.33976        -0.038202     -0.020952      0.342041
O	      4.40090      6.42721      8.52701         0.053070      0.019872      0.141444
O	      6.32849      8.35339      8.44523        -0.058561     -0.083398      0.006888
O	      6.32317      6.27647     10.48172        -0.119865     -0.013086     -0.094122
O	      8.60552      8.58990     10.51824         0.011211      0.247205      0.004485
