# total energy = -253.37143835 eV
 
CRYSTAL
PRIMVEC
-0.013153 6.262912 6.379586 
6.295483 -0.001017 6.367514 
4.195622 4.165951 0.000642 
PRIMCOORD
36 1
Li	      6.29116      0.18678      6.23068        -0.003291     -0.043693     -0.045205
Li	      8.19418      2.08569      6.34298         0.039329     -0.013444     -0.023904
Li	      4.18640      2.11645      2.10931         0.011255      0.020025     -0.022613
Li	      6.32746      1.99989      4.48916         0.025374     -0.012723     -0.043378
Li	      6.28283      2.09544      8.25006         0.032510     -0.038628     -0.025374
Li	      4.47471      2.02874      6.38807         0.026237     -0.013553     -0.021905
Li	      6.33205      3.92487      6.36233        -0.008234      0.017190     -0.036457
Li	      8.23187      6.31751     10.64431        -0.071296      0.025394      0.020856
Li	      6.29336      6.26141      8.60036        -0.035113      0.054432      0.024088
Ti	      8.32764      4.16233      8.30910         0.026886     -0.242795     -0.173546
Ti	      4.18133      4.10808      4.28744        -0.261585     -0.106783      0.236002
Ti	      2.15256      4.13407      6.35312         0.310055     -0.080271      0.084402
Ti	      4.22499      6.31459      6.42574         0.125506      0.237634      0.135165
Ti	      8.40825      8.18343      8.51289        -0.238883     -0.171194     -0.119936
Mn	      6.15102      4.24376      2.06411         0.037328      0.018592     -0.060851
V	      4.21001      0.05412      4.27165        -0.021414     -0.031065     -0.045186
V	      2.11795      2.12108      4.28299        -0.033420     -0.123528     -0.101123
Ni	      6.23888      4.23267     10.60968         0.023949     -0.147197      0.057041
O	      2.10783      2.24107      2.17119        -0.039471      0.268929     -0.049353
O	      4.02555      4.18779      2.30156        -0.042478      0.050607      0.012554
O	      4.21022      2.11894      4.25221         0.032386      0.160291      0.051304
O	      6.25809      4.19681      4.24043        -0.008183      0.001978     -0.030419
O	      6.34212      2.04956      6.37372         0.013165     -0.042433      0.034996
O	      8.37242      4.18500      6.46300         0.002665      0.012627      0.274393
O	      2.07669      4.21707      4.23836         0.003308      0.150377     -0.171642
O	      4.21773      6.18184      4.42010        -0.089654     -0.189964      0.083583
O	      4.23002      4.19138      6.41434        -0.066856      0.272218      0.024783
O	      6.21723      6.31717      6.38506        -0.166096      0.264492      0.022772
O	      6.31005      4.17125      8.54591         0.132933     -0.018610     -0.103833
O	      8.38223      6.28542      8.50865         0.020287      0.090425      0.001775
O	      2.22506      6.16005      6.34746         0.155481     -0.185624     -0.103869
O	      4.30679      8.25281      6.34480         0.104582     -0.297511      0.125160
O	      4.18592      6.19100      8.44183        -0.021208     -0.068891     -0.037040
O	      6.42607      8.33510      8.35205         0.010140      0.030601      0.096594
O	      6.13588      6.23022     10.62949         0.056924      0.140765     -0.002818
O	      8.38344      8.41121     10.45739        -0.083120      0.011332     -0.067017
