# total energy = -260.37053404 eV
 
CRYSTAL
PRIMVEC
0.003222 6.330500 6.365122 
6.329447 0.023315 6.344713 
4.230058 4.217285 0.005189 
PRIMCOORD
36 1
Li	      6.35799      0.13120      6.38905        -0.070114      0.172214      0.033632
Li	      8.35844      2.09377      6.39485        -0.157381      0.069680      0.071829
Li	      2.06323      0.04044      2.08787        -0.057585     -0.014474      0.002724
Li	      8.35788      4.26745      4.29856        -0.033187      0.037621      0.118228
Li	      0.04645      2.01020      2.01591         0.022321     -0.014288     -0.130024
Li	      4.29538      4.22509      4.30798         0.055817     -0.037658      0.123872
Li	      4.28064      2.17822      6.31007         0.040449      0.049594      0.013058
Li	      2.23910      4.28137      6.35837         0.223170     -0.081690      0.017221
Li	      4.16136      6.24121      6.37946         0.051237     -0.191035      0.022992
Ti	      2.19427      6.33928      4.40020        -0.044115     -0.193104      0.336817
Ti	      4.23886      8.37991      8.46876        -0.087917      0.131372      0.233882
Ti	      8.53016      4.24440      8.35320        -0.019346     -0.043852     -0.920216
Ti	      4.22774      8.39698      4.45598         0.153380      0.161432      0.129856
Ti	      6.28691      6.37169      8.36729         0.009995     -0.395774     -0.743396
Mn	      6.31110      2.16637      4.31552        -0.105642      0.194154      0.456868
V	      6.29832      6.36473      4.25212         0.064247     -0.216970      0.506880
V	      6.28374      4.16958      6.35670         0.418564      0.722779      0.084207
V	      4.19588      4.23229      8.44059         0.399747     -0.001864     -0.393992
O	      2.18030      2.20677      2.10850         0.201134      0.028749      0.058806
O	      4.10800      4.13455      2.07100        -0.108249     -0.158160      0.067363
O	      4.18382      2.10114      4.03482        -0.071474     -0.031495     -0.328602
O	      6.33550      4.28649      4.30553         0.023868      0.033811     -0.069669
O	      6.34111      2.21057      6.38638        -0.025068     -0.853162     -0.005407
O	      8.37421      4.28339      6.48397         0.503274     -0.073332      0.454005
O	      2.06757      4.28460      4.16836        -0.088720      0.165015      0.075224
O	      4.18261      6.37754      4.22303        -0.334139      0.253296      0.081419
O	      4.31655      4.22372      6.37907        -1.028324     -0.034364     -0.169524
O	      6.36172      6.28725      6.44312        -0.121380      0.552940      0.217731
O	      6.38116      4.27342      8.54800         0.089013     -0.050285      0.103647
O	      8.39910      6.28018      8.55460        -0.102870     -0.109695      0.174026
O	      2.10019      6.31719      6.22311         0.023147      0.042476     -0.612036
O	      4.24191      8.43374      6.33401        -0.045135     -0.027942     -0.417709
O	      4.24851      6.37505      8.43902         0.107315      0.277585      0.051408
O	      6.28426      8.41372      8.43708        -0.253104     -0.041358     -0.000647
O	      6.40686      6.26629     10.46031         0.118480     -0.145095      0.172983
O	      8.53670      8.40309     10.58002         0.248594     -0.177120      0.182542
