# total energy = -260.30825425 eV
 
CRYSTAL
PRIMVEC
0.022403 6.370915 6.228557 
6.386386 0.008996 6.241966 
4.274672 4.273448 -0.010948 
PRIMCOORD
36 1
Li	      6.42280      6.38175     12.41699         0.110124     -0.112206     -0.020972
Li	      8.52931      8.51588     12.42921         0.101983     -0.080971     -0.009741
Li	      6.44357      6.38439      4.25294        -0.000083     -0.000119      0.156041
Li	      4.28291      4.21303      4.25782         0.028262     -0.088661      0.089951
Li	      8.47068      6.48077      6.23994        -0.132964      0.121348     -0.003766
Li	      6.32180      4.32598      6.25000        -0.161759      0.111233     -0.007389
Li	      8.55791      6.40356     10.37006         0.106585      0.000823      0.057288
Li	      4.26980      4.20916      8.25391        -0.032020      0.006226     -0.079260
Li	      6.46492      6.39535      8.23095         0.020143      0.058457     -0.117753
Ti	      6.39206      2.08461      8.21661        -0.108732     -0.026025     -0.045433
Ti	      2.07297      0.04604      2.05078         0.228602     -0.223445     -0.493514
Ti	      8.49916      4.33009      4.29040        -0.103555      0.151476     -0.190075
Ti	      8.52844      4.31439      8.27439         0.096689      0.111863      0.167067
Ti	      6.42070      4.27976     10.36615         0.054969     -0.183417      0.971959
Mn	      6.48534      8.45991     10.47781        -0.002667     -0.011706     -0.051563
Mn	      4.35823      6.27894      6.19295         0.000770      0.108652     -0.039797
V	      4.20947      2.18113      2.06707         0.182065     -0.036174     -0.344968
V	      2.23282      4.17622      6.20792        -0.744690      0.656145     -0.273937
O	      2.09195      2.15418      2.06010        -0.143469     -0.004706      0.061204
O	      4.25702      4.30515      2.11289        -0.146062      0.126087      0.033444
O	      4.29028      1.97757      4.15998        -0.050666     -0.221290      0.091130
O	      6.49161      4.27684      4.07421         0.191526      0.062602      0.048962
O	      6.42436      2.12261      6.36661         0.035298     -0.072115      0.163208
O	      8.52480      4.26071      6.22715         0.060002     -0.049573      0.141726
O	      2.06669      4.25603      4.08465         0.196283     -0.024026     -0.596190
O	      4.26723      6.56121      4.02648        -0.010751      0.155081     -0.313357
O	      4.18845      4.22743      6.20154         0.494758     -0.205654      0.144752
O	      6.41606      6.49664      6.24509         0.136544     -0.779436      0.046727
O	      6.46012      4.17845      8.34450         0.206251      0.042149      0.005746
O	      8.62354      6.25681      8.31853         0.042091     -0.204658     -0.004083
O	      2.13029      6.31293      6.34687        -0.076939      0.432844      0.373552
O	      4.38577      8.54092      6.13730        -0.546666      0.052634     -0.188488
O	      4.13567      6.43501      8.41073        -0.077067     -0.018882      0.288843
O	      6.36705      8.63224      8.28956         0.121371      0.088275      0.153970
O	      6.29697      6.27420     10.36160        -0.111139     -0.035535     -0.075916
O	      8.66869      8.64740     10.40096         0.034914      0.092706     -0.139368
