# total energy = -257.87388154 eV
 
CRYSTAL
PRIMVEC
-0.015394 6.361328 6.211189 
6.350860 -0.005085 6.201405 
4.230386 4.230501 -0.000158 
PRIMCOORD
36 1
Li	      4.20351      4.19152      0.05397        -0.001160     -0.026677     -0.004414
Li	      2.13396      2.13811      0.01195         0.025738     -0.008500      0.037596
Li	      2.06115      0.07288      2.08358        -0.061721      0.058243     -0.000765
Li	      4.20683      2.12737      2.08501        -0.014641      0.018086     -0.044356
Li	      6.37921      6.23856      4.07218        -0.005111     -0.085673     -0.026829
Li	      4.27324      4.21551      4.06198         0.019222      0.024720     -0.019179
Li	      6.36067      4.23656      6.19244        -0.007789      0.004600     -0.022005
Li	      6.33413      4.26808     10.35919         0.034158      0.003622      0.044157
Li	      4.22000      4.30448      8.28575        -0.028426     -0.016310     -0.026351
Ti	      2.16888      6.37696      4.19061         0.026555     -0.118589      0.104358
Ti	      6.29643      2.21883      4.20496        -0.041247      0.276199      0.030008
Ti	      2.16550      4.10062      1.99514         0.233441     -0.273155     -0.146534
Ti	      6.31465      8.47478      6.20585        -0.093639      0.054942      0.075866
Ti	      4.19590      6.35752      6.20077        -0.118896      0.009290     -0.146952
V	      6.32716      2.16834      8.29757         0.104249     -0.045202     -0.003543
V	      4.19513      2.18328      6.14970         0.015174     -0.144972     -0.021116
Cr	      6.31502      6.32573      8.30809        -0.089858      0.128366     -0.050792
Co	      8.43829     10.52299     10.34452         0.110091      0.176346      0.081269
O	      2.09333      2.21546      2.07454         0.023024      0.418569     -0.029649
O	      4.06607      4.28617      2.07129        -0.297470      0.002686     -0.014522
O	      4.36487      2.09257      4.08359         0.146499     -0.182801      0.025469
O	      6.39553      4.10803      4.09058        -0.118753     -0.435058      0.021881
O	      6.30785      2.14396      6.13232         0.026514      0.033370     -0.282622
O	      8.46614      4.24528      6.24676         0.037198     -0.026045      0.253042
O	      2.12335      4.32982      4.15699        -0.011797      0.047608      0.005074
O	      4.19297      6.36499      4.19511        -0.045363      0.001774      0.170690
O	      4.13978      4.32022      6.19020        -0.121703      0.203506     -0.031234
O	      6.29595      6.38765      6.25818        -0.182163      0.011616     -0.012318
O	      6.48001      4.31129      8.29241         0.076933      0.085571      0.039024
O	      8.39232      6.30495      8.30095        -0.149831     -0.051263      0.006375
O	      2.13672      6.30027      6.23707         0.172737     -0.127022     -0.059802
O	      4.31979      8.37629      6.19758         0.177651     -0.282295      0.071800
O	      4.31704      6.31199      8.23806         0.189860     -0.019284     -0.034971
O	      6.34200      8.36892      8.26034         0.010812     -0.097563      0.105838
O	      6.38208      6.41296     10.31320         0.047777      0.075693     -0.070976
O	      8.34460      8.32566     10.35767        -0.088064      0.305604     -0.023517
