# total energy = -254.57429363 eV
 
CRYSTAL
PRIMVEC
0.011446 6.312245 6.314669 
6.348673 -0.022258 6.348345 
4.227841 4.226105 -0.010276 
PRIMCOORD
36 1
Li	      6.41996     10.36000      8.48300         0.035334     -0.095072      0.022416
Li	      4.34699      6.23394     10.48124         0.042757      0.029625     -0.066859
Li	      6.41084      8.33376     10.45792        -0.023723     -0.058947     -0.052497
Li	      4.25117      2.15396      6.35880        -0.075302      0.028327     -0.082582
Li	      6.28577      4.21663      6.31401         0.003180      0.092090     -0.014732
Li	      6.25219      4.33454     10.48064         0.032933     -0.026539     -0.061555
Li	      6.42577      8.36605      6.51881         0.007521     -0.012096      0.097722
Li	      8.33882      8.41220      8.46513        -0.126248      0.091134      0.032425
Li	      6.37561      6.38061      8.50587        -0.100903      0.078435      0.034215
Ti	      8.42047      8.36658     12.54544        -0.084688      0.091949     -0.076308
Ti	      8.28845      4.27715      8.42770        -0.540590      0.037336      0.000762
Ti	      6.34950      6.28660      4.19039         0.298286     -0.188876     -0.296852
Ti	      4.27531      4.22064      4.22120         0.129278     -0.297090     -0.232014
Ti	      4.26945      6.32892      6.39863         0.401981     -0.145948      0.964503
V	      4.36598      8.37025      8.48146        -0.690919     -0.202775      0.340380
V	      2.13181      6.28637      4.18263        -0.093196      0.066500     -0.003748
Cr	      4.24986     10.52304      6.30561         0.110208     -0.158402     -0.113215
Cu	      6.20510      2.29638      8.30035        -0.108492      0.220399     -0.062185
O	      2.25399      2.16165      2.13202        -0.431115      0.221702      0.034819
O	      4.18718      4.09727      2.14272        -0.160670      0.621256      0.114591
O	      4.14494      2.17515      4.26254         0.030541      0.125189      0.244082
O	      6.25869      4.31964      4.18504        -0.081904      0.164910      0.166693
O	      6.48285      1.96649      6.29590         0.166658     -0.003242     -0.075144
O	      8.56147      4.07950      6.44290        -0.031066     -0.121545      0.028126
O	      2.18142      4.15300      4.08267         0.074469     -0.114671     -0.165923
O	      4.29462      6.30070      4.29553         0.066610     -0.114428      0.203159
O	      4.21612      4.33122      6.20120         0.016226      0.172403     -0.255246
O	      6.21980      6.34790      6.16268        -0.195252      0.020845     -0.129001
O	      6.44151      4.28275      8.43748         0.543882      0.005992     -0.068403
O	      8.41685      6.19748      8.41168         0.077738     -0.235291     -0.063801
O	      2.11605      6.35285      6.33083         0.062733      0.298654     -0.013217
O	      4.19358      8.42559      6.37960        -0.171170     -0.079078     -0.253004
O	      4.23465      6.34454      8.31112         0.026723     -0.628520     -0.620278
O	      6.28249      8.38915      8.46483         0.884688      0.019339     -0.065351
O	      6.41911      6.25734     10.71042        -0.071454      0.024672      0.140243
O	      8.51185      8.38732     10.66853        -0.025052      0.071764      0.347777
