# total energy = -257.22117456 eV
 
CRYSTAL
PRIMVEC
-0.030196 6.346603 6.306740 
6.261526 -0.004299 6.281010 
4.166126 4.205816 0.005333 
PRIMCOORD
36 1
Li	      8.31834      2.19172      6.34000        -0.063094      0.075089      0.042379
Li	      8.30230      4.23592      4.30030         0.007501      0.016017      0.114823
Li	     10.40610      6.32050      8.38407         0.003223      0.018788      0.009865
Li	      8.32715      4.22908      8.37205        -0.021938      0.031146     -0.070837
Li	      2.10803      2.18091      4.22073         0.002968      0.037590      0.000149
Li	      4.09252      4.19544      4.25310        -0.027236      0.015013      0.016943
Li	      8.29149      6.32874      6.31011        -0.008548     -0.042589      0.045086
Li	      2.20791      4.13543      6.22375         0.097546     -0.001641     -0.014234
Li	      4.19920      4.16528      8.27401         0.049914     -0.024204     -0.095236
Ti	      6.24679      4.21616      2.14806        -0.078351     -0.033713      0.047461
Ti	      8.28013      6.33753     10.39456         0.279453     -0.076549     -0.358498
Ti	      4.11565      2.12850      2.10956        -0.170747      0.095350      0.202277
Ti	      6.29751      8.38724     10.53184        -0.054704      0.381224      0.331439
Ti	      6.23458      4.24642     10.43522        -0.005296     -0.095716     -0.159456
V	     10.36632      4.21362      6.31699        -0.197784      0.092183      0.034327
V	      6.29525      4.18931      6.27549        -0.016999     -0.057577     -0.192524
Cr	      4.17111      6.29331      6.27009         0.046929     -0.375566     -0.069339
Fe	      6.25949      6.33676      8.37135         0.104820     -0.031946     -0.310049
O	      2.15666      2.00701      2.13175         0.155380     -0.111879      0.033502
O	      4.22157      4.16026      2.11966         0.197994     -0.122657      0.113852
O	      4.29505      2.08514      4.02639         0.084236      0.009292     -0.223704
O	      6.30179      4.11232      4.11287        -0.034542      0.138072      0.100242
O	      6.22973      2.14566      6.21240         0.050681     -0.111307      0.009630
O	      8.27494      4.22826      6.31796         0.315597     -0.031987     -0.030081
O	      1.95562      4.31518      4.23139        -0.141705      0.025944     -0.019447
O	      4.07724      6.40744      4.27151        -0.082598      0.094365      0.006398
O	      4.25191      4.30621      6.27067        -0.307735      0.123961     -0.037439
O	      6.17646      6.23443      6.24891        -0.050138      0.027652      0.026993
O	      6.23696      4.23237      8.45364        -0.025679      0.065710      0.089939
O	      8.36111      6.35882      8.53619        -0.056289     -0.014238      0.370375
O	      2.09035      6.33829      6.35135         0.096385     -0.001046      0.003987
O	      4.13881      8.39361      6.33048         0.014876     -0.039329     -0.050070
O	      4.08081      6.40230      8.29765        -0.100278      0.016516      0.053362
O	      6.20180      8.48205      8.42550        -0.114827     -0.060071      0.028937
O	      6.18165      6.30639     10.52025         0.093887      0.016365     -0.010809
O	      8.32994      8.41532     10.51789        -0.042905     -0.048263     -0.040245
