# total energy = -91.52575511 eV
 
CRYSTAL
PRIMVEC
1.939595 4.018389 1.974998 
4.004841 -4.082129 0.001491 
3.989606 -0.013795 -4.033077 
PRIMCOORD
16 1
Li	      3.85802      3.85574     -0.05577        -0.337054      0.463586      0.630916
Li	      3.86150      1.87292      1.85319        -0.116262      0.585662      0.513236
Li	      3.82838      0.02230     -0.00097        -0.199709     -0.538684     -0.062902
Li	      3.85895     -1.92039     -1.93283         0.022838     -0.465894     -0.124382
Mn	      9.60947     -0.07347     -1.99409         3.327565      0.094466     -1.516517
Mn	      1.94006      1.94555     -0.04614        -3.050488      0.872811      1.038500
Ni	      3.81668      1.92922     -1.95533        -0.780845      0.754194     -1.308918
Ni	      5.82104     -0.02906     -1.93847         0.608297      0.533720     -0.484429
O	      5.75208     -0.19209      0.03802         0.297682      0.069445      1.268233
O	      5.79459     -1.94484     -1.82631         0.453163     -1.389539     -1.373794
O	      3.70142      1.90976     -0.04059         1.817817      0.458776      1.111932
O	      3.90299     -0.00792     -2.11166        -1.477522     -0.695351     -0.018592
O	      7.80097     -0.08449     -1.98900         0.127257      0.268999      0.065903
O	      3.93642     -2.14669     -0.01855        -0.715010     -0.782494      0.391780
O	      5.78046      2.00694     -2.08000         0.946226      0.828003      0.016784
O	      1.83605      0.10980      0.02623        -0.923955     -1.057702     -0.147750
