# total energy = -255.08710732 eV
 
CRYSTAL
PRIMVEC
0.043084 6.341216 6.250830 
6.286140 0.045324 6.248288 
4.203756 4.238762 0.017515 
PRIMCOORD
36 1
Li	      8.40439      8.53236     12.42948        -0.024524      0.000441      0.016919
Li	      8.39857     10.46205     10.50221        -0.034523     -0.022128      0.021313
Li	     10.46002      6.46231      8.36912        -0.003057      0.043201      0.002031
Li	      4.16153      4.37583      4.23392        -0.016800      0.021814     -0.033959
Li	      6.29855      4.21136      6.28292        -0.009604     -0.035741      0.039628
Li	      2.23807      6.38759      4.19610         0.015300      0.077689     -0.013982
Li	      2.19402      4.31859      6.17738         0.011375      0.023309     -0.021474
Li	      4.14260      6.24646      6.20499        -0.057592     -0.117261      0.026948
Li	      4.26925      4.23608      8.35647        -0.004367     -0.011699      0.012239
Ti	      0.10612      6.35994      6.21094         0.156787      0.083335      0.014450
Ti	      4.23147      8.45575      8.31868         0.028518     -0.032514     -0.024955
Ti	      6.29228      6.30827      4.25286        -0.038419     -0.114848      0.010390
Ti	      4.20407      2.26471      6.21175         0.063709      0.269750      0.032565
Ti	      6.32296      6.36775      8.31097        -0.023793      0.003718      0.000512
V	      2.17881      6.39003      8.29901         0.013323     -0.067252      0.021240
V	      6.32211      2.14917      4.22071        -0.008557      0.071677     -0.056017
Cr	      4.17384      8.41923      4.21537        -0.032649      0.038794      0.007778
Ni	      8.38488      4.29743      8.34008         0.051582     -0.041969     -0.002530
O	      2.16724      2.15537      2.14676         0.013461     -0.018389      0.009476
O	      4.20678      4.15587      2.03290        -0.008309      0.004933     -0.026390
O	      4.18846      2.14085      4.12944        -0.127216     -0.010155     -0.007691
O	      6.32176      4.33209      4.18879        -0.010672      0.158719      0.041385
O	      6.25410      2.09526      6.31388        -0.054494     -0.034176      0.038130
O	      8.52912      4.40644      6.27603         0.042869     -0.013900     -0.076975
O	      2.02567      4.07570      4.15312         0.007250     -0.038354      0.115870
O	      4.31541      6.42150      4.19411         0.078004      0.001616      0.007808
O	      4.20935      4.10228      6.23493        -0.003895     -0.246755      0.007660
O	      6.33858      6.32823      6.29603         0.012133      0.009518      0.024096
O	      6.32429      4.37660      8.42247        -0.104111      0.019755     -0.015883
O	      8.31467      6.36279      8.27632        -0.033156      0.127463     -0.002672
O	      2.01250      6.33229      6.22109        -0.141782      0.012279     -0.061292
O	      4.20317      8.54065      6.30366         0.012909      0.038254      0.005474
O	      4.30627      6.46010      8.30618         0.153455      0.054304     -0.014460
O	      6.28726      8.45588      8.33397        -0.061049     -0.131585     -0.082352
O	      6.32545      6.33390     10.40087        -0.020646     -0.100136     -0.000146
O	      8.46432      8.49780     10.42881         0.158537     -0.023707     -0.015136
