# total energy = -258.76770806 eV
 
CRYSTAL
PRIMVEC
0.050550 6.273236 6.312642 
6.330195 0.003771 6.359360 
4.224419 4.217562 -0.001656 
PRIMCOORD
36 1
Li	      6.24009      0.09741      6.21129        -0.002453     -0.028519     -0.068149
Li	      6.42301     10.43509      8.44142         0.031246     -0.049176     -0.018042
Li	      8.50484     10.35944     10.68371        -0.029433      0.053320      0.052992
Li	      6.50990      8.37878     10.59536        -0.046038      0.027621      0.016659
Li	      4.36401      1.97595      6.30878         0.048976     -0.034196     -0.030122
Li	      6.42653      4.12022      6.32812         0.021964     -0.045008     -0.016167
Li	     10.39785      8.48837     10.54194         0.008838      0.030027      0.010997
Li	      8.39485      6.48298     10.57083        -0.036633     -0.038149      0.026861
Li	      8.47111      8.40328      8.64065        -0.029187      0.023227      0.047576
Ti	      4.23120      2.13316      2.17006         0.085808      0.002960     -0.023681
Ti	      6.37199      6.27870      4.24477         0.054313     -0.091812     -0.003843
Ti	      4.27393      4.19574      4.23549         0.093735     -0.061117      0.012319
Ti	      4.23395      6.23294      6.26512        -0.218541     -0.015490      0.077336
Ti	      6.42214      6.24700      8.57367         0.060990     -0.041987      0.555290
V	      8.42552      4.25477      8.42827         0.051969     -0.082548     -0.009099
V	      2.11251      4.22239      6.32172         0.006563      0.036737      0.021755
Cr	      8.44274      8.41930     12.58300        -0.019357      0.058584     -0.070868
Cr	      6.28207      2.15410      8.43011         0.021465     -0.034528     -0.141494
O	      2.08730      2.10124      2.12676         0.015900     -0.064971      0.039915
O	      4.24123      4.21991      2.16371         0.048847     -0.016526      0.079046
O	      4.20949      2.12906      4.19833        -0.051841      0.069181     -0.120415
O	      6.25379      4.31184      4.18566        -0.164948      0.150425      0.019430
O	      6.41817      2.08828      6.46967        -0.028258     -0.008456      0.149082
O	      8.46534      4.11065      6.36595        -0.019460     -0.011236      0.020535
O	      2.21425      4.11724      4.21073         0.120898     -0.095148     -0.006297
O	      4.26197      6.29704      4.19101         0.056121     -0.050680      0.017129
O	      4.23255      4.25403      6.25877         0.073419      0.176097     -0.138599
O	      6.30751      6.30388      6.30958        -0.092904     -0.065935     -0.007389
O	      6.35348      4.18816      8.45890        -0.173898      0.062092      0.013816
O	      8.47870      6.31915      8.41719        -0.057942      0.158352      0.041623
O	      2.27524      6.33228      6.32698         0.151986      0.010475     -0.036027
O	      4.20979      8.31828      6.40091         0.050845     -0.058679      0.044338
O	      4.36959      6.34870      8.31663         0.046826      0.082830     -0.071563
O	      6.29453      8.29992      8.42676        -0.112522     -0.037385      0.040094
O	      6.39173      6.26421     10.39044        -0.029040      0.035976     -0.569770
O	      8.45340      8.41210     10.66385         0.061744     -0.046357      0.044734
