# total energy = -256.34421031 eV
 
CRYSTAL
PRIMVEC
-0.015714 6.338110 6.331640 
6.381516 0.026928 6.290414 
4.283264 4.226123 -0.010884 
PRIMCOORD
36 1
Li	      4.22288      2.13576      2.08416        -0.008284      0.015470      0.011532
Li	      4.27060      6.35984      2.17026        -0.019825     -0.011991      0.054484
Li	      8.46333      4.31675      8.41011         0.006665      0.070792      0.022994
Li	      6.31095      6.38664      4.19672        -0.088551     -0.000532     -0.013806
Li	      8.48434      6.35225      6.35959        -0.034126     -0.011354      0.033260
Li	      6.42848      4.33277      6.34733         0.083683      0.030287     -0.019585
Li	      2.23770      6.27455      4.14101         0.092192     -0.025727     -0.036484
Li	      4.30660      6.31070      6.26974         0.007471     -0.013891     -0.014918
Li	      6.45336      6.27879      8.32428         0.049654     -0.004603      0.018376
Ti	      6.31187      0.09793      6.28905        -0.264825      0.035364      0.050640
Ti	      2.14083      0.08739      2.13685         0.115107      0.167182      0.098399
Ti	      6.31339      2.05813      4.18318        -0.296320     -0.026281      0.142227
Ti	      6.37627      8.29932      6.24077        -0.008839     -0.489228     -0.237915
Ti	      4.36381      4.09918      8.36275         0.166304     -0.453359     -0.116215
V	      4.23910      0.09471      4.17261        -0.063119      0.092082      0.113710
V	      4.29127      8.39259      4.20680        -0.034097      0.041913      0.000046
Fe	      2.17130      2.10537      0.05200         0.081687      0.065502     -0.009088
Fe	      4.24445      4.35766      4.19156        -0.113858     -0.083416      0.030998
O	      2.17350      1.97521      2.09093        -0.012307     -0.196584     -0.052369
O	      4.40600      4.22454      1.98476         0.106299      0.016480     -0.113048
O	      4.41250      2.22196      4.16195         0.391411     -0.093420     -0.012238
O	      6.42837      4.17273      4.13724        -0.029783     -0.126737     -0.170344
O	      6.42402      2.07785      6.19769        -0.018972     -0.052247     -0.098631
O	      8.65642      4.26236      6.31190         0.315791      0.102359     -0.047927
O	      2.10595      4.22858      4.32304         0.034748     -0.000211      0.214242
O	      4.25646      6.31912      4.22969        -0.009795      0.041692      0.015977
O	      4.10004      4.24484      6.43652        -0.047593      0.005977      0.100209
O	      6.39485      6.47437      6.30989        -0.028434      0.414936      0.033489
O	      6.24761      4.26065      8.38455        -0.242004     -0.013152     -0.062257
O	      8.50851      6.48700      8.40591         0.042803      0.486957      0.013719
O	      1.99180      6.27132      6.41597        -0.020973     -0.098516      0.062540
O	      4.39155      8.51346      6.34827         0.010986      0.082370     -0.004624
O	      4.08774      6.24723      8.42351        -0.123716     -0.042429     -0.143790
O	      6.46763      8.51522      8.41803        -0.027627     -0.030157      0.003356
O	      6.36283      6.37941     10.54346        -0.014339      0.144321      0.025014
O	      8.44415      8.49651     10.44822         0.002589     -0.039850      0.108028
