# total energy = -256.37130164 eV
 
CRYSTAL
PRIMVEC
0.017688 6.303121 6.268605 
6.241057 0.005324 6.280954 
4.161137 4.210660 0.003028 
PRIMCOORD
36 1
Li	     10.28324      4.22187      6.32129        -0.038965      0.034968      0.009755
Li	      4.17211      8.31649      8.35701        -0.027823     -0.046390      0.000662
Li	      4.15705      0.05346      4.13591        -0.082814     -0.007953      0.031488
Li	      8.37159      4.23341      8.25737        -0.056031     -0.024539     -0.063086
Li	      4.20739      4.16747      4.19631         0.063530     -0.018523      0.084311
Li	      8.28455      6.23918      6.31501        -0.075504     -0.049030      0.037238
Li	      4.24901      6.29701      6.41261         0.079453     -0.074745      0.004324
Li	      4.20891      4.28624      8.33920         0.091151      0.025323     -0.068501
Li	      6.12356      6.29944      8.30843        -0.069928     -0.083395     -0.072414
Ti	      2.08820      6.24231      4.14754        -0.137985     -0.009387      0.097750
Ti	      6.10591      2.13668      4.15787        -0.399917      0.278726      0.130865
Ti	     10.34502      6.24927      8.34730        -0.043254      0.141169     -0.330707
Ti	      6.29221      4.31170     10.43902        -0.017448     -0.013531     -0.328899
Ti	      2.21941      4.15911      6.35594         0.621062     -0.155899      0.033260
V	      8.34520      2.17379      6.29194        -0.031426      0.281122      0.023330
V	      2.18320      6.24866      8.32360        -0.031731      0.074476      0.087714
V	      2.12566      2.12825      4.20007         0.072077     -0.214439      0.108817
Co	      6.20639      4.26539      6.34404        -0.048956     -0.036717     -0.157411
O	      2.06329      2.03417      2.03883        -0.096468      0.070917     -0.008458
O	      4.25200      4.35723      2.09282        -0.104428      0.154431     -0.012305
O	      4.24731      2.11443      4.17457         0.383914     -0.023030      0.011957
O	      6.23276      4.15674      4.16914         0.033285     -0.151655     -0.183899
O	      6.23096      2.10884      6.26395        -0.016916     -0.248901      0.052271
O	      8.26327      4.08796      6.28588        -0.037022     -0.103351      0.014238
O	      2.11749      4.22809      4.22338        -0.079931      0.102084      0.012737
O	      4.13762      6.40275      4.12788        -0.113737     -0.048696     -0.119621
O	      4.08183      4.22883      6.29132        -0.381057      0.038475      0.043848
O	      6.25283      6.40862      6.29828         0.022950      0.155291     -0.008113
O	      6.25987      4.11296      8.46873         0.079733     -0.041779      0.568859
O	      8.38453      6.28844      8.46032         0.272783     -0.016044      0.179848
O	      2.10378      6.31985      6.22158        -0.007139      0.037864     -0.134538
O	      4.25455      8.46009      6.15130        -0.007842      0.002869     -0.081790
O	      4.07209      6.29379      8.37923         0.110920      0.047173      0.024675
O	      6.23423      8.41707      8.38556        -0.026099     -0.117277      0.043410
O	      6.28631      6.35570     10.43260         0.095750     -0.000441      0.024565
O	      8.33724      8.33015     10.51945         0.005810      0.040834     -0.056180
