# total energy = -255.88181566 eV
 
CRYSTAL
PRIMVEC
-0.018840 6.276639 6.272215 
6.303119 -0.020726 6.274185 
4.197471 4.181187 -0.009257 
PRIMCOORD
36 1
Li	      6.30487      0.02294      6.30739        -0.001236     -0.023346     -0.046327
Li	      8.33745      2.06996      6.30922         0.002525      0.023826     -0.041523
Li	      4.18520      2.11092      2.12704        -0.009053     -0.009791     -0.011488
Li	      6.34664      2.08206      8.31096         0.026376      0.042823      0.011764
Li	      2.12772      2.04620      4.14064         0.011412      0.034250      0.002008
Li	      4.24014      4.13417      4.16914         0.003263      0.002950      0.019447
Li	      6.28580      4.14556      6.28956         0.032768      0.028717      0.022619
Li	      4.18192      4.16424      8.34578        -0.018820      0.023743      0.037215
Li	      6.29301      6.27940      8.35862        -0.041486      0.019303      0.009361
Ti	      8.33202      6.28292     10.35933        -0.074574      0.012183     -0.045065
Ti	      6.15835      4.17605      2.15848        -0.076626     -0.065437      0.211881
Ti	      2.09763      4.10657      2.04351        -0.118671     -0.073491     -0.003500
Ti	      4.32105      2.09926      6.24495         0.248682     -0.012969     -0.095188
Ti	      4.27032      6.22096      6.34708         0.143239      0.026142      0.094291
V	      4.20143     -0.00063      4.17965         0.080289     -0.053240     -0.016816
V	      4.20507      8.28998      4.17972        -0.021684      0.015772     -0.035690
V	      2.10303      4.19168      6.23117        -0.004792     -0.043079      0.015182
Cu	      6.27612      2.09605      4.20328        -0.059234      0.002613      0.068297
O	      2.10446      2.12271      2.05225         0.009795     -0.018200     -0.017767
O	      4.21643      4.18780      2.07998         0.037407      0.066719     -0.031095
O	      4.07292      2.09790      4.34715         0.017740      0.077571      0.095445
O	      6.28471      4.27279      4.02512        -0.061195     -0.059743     -0.198732
O	      6.15239      2.09832      6.34441        -0.174074     -0.002992     -0.093502
O	      8.39779      4.22069      6.31686        -0.001244      0.055800      0.115264
O	      2.06721      4.17973      4.10557         0.008145     -0.002057     -0.110475
O	      4.02936      6.22003      4.31110        -0.005126      0.003995      0.040830
O	      4.21708      4.17813      6.28837         0.051608      0.040849      0.076694
O	      6.20555      6.26353      6.31768        -0.118231     -0.087938      0.013869
O	      6.49476      4.15031      8.44761         0.152167      0.000914     -0.087306
O	      8.38787      6.23602      8.35377        -0.036487     -0.027048      0.033655
O	      2.15079      6.29689      6.25970        -0.031333      0.142465      0.019615
O	      4.21092      8.22253      6.18766        -0.034789     -0.134372      0.038299
O	      4.09480      6.28695      8.28444        -0.062213     -0.010005     -0.167495
O	      6.25993      8.54673      8.27400         0.000804      0.046306      0.103871
O	      6.39007      6.16917     10.46923         0.129656      0.045479     -0.008721
O	      8.53268      8.29566     10.37887        -0.005010     -0.088711     -0.018917
