# total energy = -254.72116559 eV
 
CRYSTAL
PRIMVEC
-0.010103 6.243253 6.322566 
6.367030 0.008878 6.303761 
4.252616 4.157842 -0.002112 
PRIMCOORD
36 1
Li	      4.22675     10.30046      6.29954        -0.037170     -0.026024     -0.006913
Li	      8.54794      8.37368     12.54277         0.061250     -0.011259      0.049517
Li	      6.37712     10.32830      8.37641         0.017904     -0.004270     -0.031580
Li	      4.27998      8.32176      8.35263        -0.006359     -0.013514     -0.018813
Li	      8.49891     10.27072     10.56212        -0.020110      0.004066      0.011684
Li	      6.39475      4.10892      6.28034         0.045940     -0.026500     -0.012710
Li	     10.46567      8.44298     10.58530        -0.054495     -0.015141      0.031361
Li	      6.31377      8.41727      6.38843        -0.051581      0.030930      0.012611
Li	      8.46408      8.39896      8.47838        -0.048006      0.005717      0.051520
Ti	      6.45747      2.14527      8.33176         0.234631     -0.025802     -0.206738
Ti	      4.33006      4.14105      4.23555        -0.032382      0.023963     -0.229232
Ti	      8.42853      6.22001      6.32044         0.078236     -0.415803      0.031170
Ti	      4.22980      6.34167      6.36773        -0.189682      0.498643      0.208858
Ti	      6.33025      6.29443      8.41611        -0.106220      0.214453      0.150991
V	      8.46573      4.16750      8.36758         0.013128     -0.100205     -0.006053
V	      6.39341      6.24227      4.25708         0.032876     -0.062413     -0.062779
V	      8.46956      6.31635     10.56197        -0.029343     -0.041057      0.166027
Ni	      6.39698      8.31545     10.52311        -0.011844     -0.028180      0.005201
O	      2.02024      2.06040      2.11850        -0.287632      0.159705      0.065816
O	      4.20669      4.26596      2.15816         0.203244      0.034030      0.133560
O	      4.26568      2.12080      4.26237        -0.048163      0.182810      0.152352
O	      6.25695      4.14229      4.18830        -0.219068     -0.022488      0.033902
O	      6.24831      2.09940      6.39914        -0.074855      0.002167      0.165913
O	      8.46259      4.29414      6.29572        -0.035269      0.327560     -0.151251
O	      2.27011      4.21688      4.20014         0.132611     -0.049775     -0.085463
O	      4.24984      6.24735      4.17444         0.020894     -0.113521      0.070448
O	      4.22777      4.13998      6.26340         0.047794     -0.065455     -0.195645
O	      6.33938      6.22995      6.34524        -0.023022      0.006947      0.169799
O	      6.36005      4.15089      8.41678        -0.023936     -0.031817     -0.019350
O	      8.53531      6.26560      8.45214         0.004685      0.221076     -0.092402
O	      2.27306      6.21330      6.24744         0.188871      0.058196     -0.007126
O	      4.26053      8.19542      6.31169         0.017682     -0.433668     -0.008519
O	      4.33237      6.21710      8.32193         0.118181      0.059245     -0.212500
O	      6.36727      8.17825      8.43206        -0.008276     -0.251159     -0.047087
O	      6.39463      6.24502     10.42638        -0.013058     -0.103264     -0.107507
O	      8.41813      8.24970     10.54262         0.102547      0.011808     -0.009062
