# total energy = -261.30296026 eV
 
CRYSTAL
PRIMVEC
-0.015432 6.322083 6.181114 
6.358070 -0.020936 6.186293 
4.231024 4.210697 -0.006360 
PRIMCOORD
36 1
Li	      6.37844      0.06678      6.12354         0.011350      0.066164      0.000647
Li	      8.39629      8.37429     12.31936        -0.001027     -0.082287     -0.081431
Li	      8.46825     10.44203     10.32916        -0.026157     -0.076427      0.021862
Li	      6.39778      8.40009     10.30461         0.031394      0.041823      0.017188
Li	      6.37830      2.08158      8.20835         0.011254     -0.028543     -0.012980
Li	      6.34258      6.29483      4.10831         0.009139      0.012124     -0.027651
Li	      4.22367      4.23966      4.10772        -0.009390      0.010414     -0.038772
Li	      2.10208      4.25182      6.21102         0.007067      0.036744     -0.011205
Li	      8.36251      8.41533      8.32793        -0.071277     -0.003009      0.063415
Ti	      4.23824      2.15453      2.12018         0.090899      0.021376     -0.006319
Ti	      2.20184      4.09574      2.02811         0.046776      0.011496      0.255071
Ti	      4.26593      2.16127      6.09498        -0.000604      0.052791     -0.043899
Ti	      6.29129      4.17728      6.07255         0.013560     -0.056846     -0.320002
Ti	      4.30483      6.24338      6.20663        -0.244711     -0.055347      0.066856
V	      6.29992      4.22046      2.10014         0.004859      0.072627     -0.051783
V	      4.19643      8.42248      4.15346         0.072065      0.104103      0.010437
V	      2.11708      6.34952      4.15123        -0.328303     -0.353614     -0.542128
V	      6.32299      6.33546      8.21912         0.247351      0.037678      0.190375
O	      2.13617      2.13670      2.06146         0.055550      0.217250     -0.040484
O	      4.18825      4.19918      2.04293        -0.183733     -0.083500     -0.013898
O	      4.20130      2.12475      4.12964         0.005624     -0.006670      0.054018
O	      6.33162      4.21639      4.20306        -0.029136     -0.001743      0.422113
O	      6.24871      2.14981      6.16216        -0.106410      0.079834      0.004742
O	      8.40384      4.26807      6.24129        -0.012471      0.083087      0.061204
O	      2.04240      4.28263      4.02268         0.026663     -0.321317     -0.198461
O	      4.21059      6.36462      4.20038        -0.261886     -0.104288      0.071423
O	      4.23410      4.19347      6.21384         0.099321     -0.008953     -0.041281
O	      6.37669      6.32158      6.11779        -0.057612     -0.013645      0.040125
O	      6.44634      4.20028      8.19713         0.065950     -0.059341     -0.085716
O	      8.44655      6.23570      8.20888         0.099442     -0.028543     -0.291899
O	      2.23494      6.28885      6.14329         0.144724      0.006449      0.340526
O	      4.24018      8.31590      6.26452         0.031554     -0.081722      0.098082
O	      4.20509      6.35181      8.22131         0.073271      0.056412     -0.165035
O	      6.23974      8.43093      8.28088        -0.115212     -0.053604      0.012542
O	      6.39806      6.19658     10.30059         0.286804      0.054327      0.224097
O	      8.56841      8.31477     10.29742         0.013315      0.454697      0.018220
