# total energy = -92.00999104 eV
 
CRYSTAL
PRIMVEC
1.949593 4.039103 1.985179 
4.025484 -4.103171 0.001499 
4.010171 -0.013866 -4.053866 
PRIMCOORD
16 1
Li	      3.89789      3.89560     -0.05635        -0.274931      0.380847      0.512095
Li	      3.90141      1.89228      1.87234        -0.093834      0.473979      0.414578
Li	      3.86795      0.02253     -0.00098        -0.166367     -0.434107     -0.055797
Li	      3.89884     -1.94024     -1.95281         0.026117     -0.371271     -0.095129
Mn	      9.70879     -0.07423     -2.01470         2.750994      0.083317     -1.259010
Mn	      1.96011      1.96566     -0.04662        -2.447722      0.681648      0.812167
Ni	      3.85613      1.94916     -1.97554        -0.613607      0.582901     -1.037433
Ni	      5.88121     -0.02936     -1.95850         0.495196      0.440370     -0.370681
O	      5.81153     -0.19408      0.03842         0.232348      0.045763      1.042107
O	      5.85448     -1.96494     -1.84519         0.349375     -1.147942     -1.089722
O	      3.73967      1.92950     -0.04101         1.414895      0.369895      0.912142
O	      3.94333     -0.00800     -2.13348        -1.225994     -0.566838     -0.011184
O	      7.88160     -0.08536     -2.00955         0.198596      0.250538      0.059297
O	      3.97710     -2.16888     -0.01874        -0.586606     -0.651598      0.290279
O	      5.84021      2.02768     -2.10149         0.762408      0.690218      0.014369
O	      1.85503      0.11093      0.02650        -0.820868     -0.827720     -0.138079
