# total energy = -246.85723459 eV
 
CRYSTAL
PRIMVEC
-0.013381 6.275619 6.250404 
6.284823 -0.023687 6.260351 
4.190758 4.191598 -0.016387 
PRIMCOORD
36 1
Li	      4.20345     10.37340      6.21994        -0.013742     -0.046692      0.011548
Li	      6.23309      4.23832      2.10778        -0.054872      0.038653      0.027289
Li	      4.19340      6.25522      2.30677        -0.012766     -0.003719     -0.000971
Li	      6.05148      6.38953      4.12396        -0.050920      0.045592     -0.014140
Li	      4.08580      4.40593      4.11921        -0.040262      0.040326     -0.023924
Li	      4.29724      8.18706      4.14824         0.019502     -0.065563     -0.012929
Li	      2.27931      6.15164      4.15023         0.064027     -0.035322     -0.029519
Li	      4.15817      6.30493      6.03156        -0.000887      0.006664     -0.004171
Li	      6.30815      6.22933      8.36354         0.046494     -0.024831     -0.024053
Ti	      2.11353      8.16557      6.21910         0.068012     -0.440999      0.046407
Ti	      4.17847      2.18548      2.13527        -0.031801      0.370860     -0.026594
Ti	      6.27694      8.19940     10.38590         0.009507     -0.265452      0.011702
Ti	      4.23197      2.04890      6.23587         0.057447      0.010092      0.055813
Ti	      6.26391      4.29062      6.18234        -0.030799      0.185267     -0.169510
Ti	      4.20174      4.27709      8.43501         0.119462      0.012406     -0.001816
Co	      2.07447      4.22205      2.25001        -0.064491      0.064619      0.085618
Cu	      4.21682      6.27607     10.25044         0.005761      0.042720     -0.229149
Ni	      2.02332      4.22656      6.13347         0.024056      0.014578      0.095665
O	      2.19616      2.05574      1.98032         0.160781      0.002400     -0.171112
O	      4.19444      4.02741      2.07412        -0.004136     -0.464374      0.043766
O	      4.21596      2.15611      4.20315         0.023372     -0.021961      0.060155
O	      6.27889      4.04176      4.31774         0.063861     -0.049175      0.339121
O	      6.31488      2.14270      6.23794         0.005416      0.034230     -0.057635
O	      8.29185      4.21963      6.40031        -0.151506      0.115082      0.058053
O	      2.07096      4.18975      4.18579        -0.053910      0.053278     -0.058720
O	      4.19044      6.27207      4.16079        -0.009929      0.000317      0.006329
O	      4.24090      4.08283      6.33603         0.060606     -0.075492      0.049807
O	      6.41063      6.21950      6.20809         0.133264     -0.244108      0.009420
O	      6.16618      4.20864      8.23490        -0.189259     -0.011253     -0.170989
O	      8.35973      6.40675      8.18180         0.062050      0.053987     -0.163396
O	      2.03858      6.35236      6.26516        -0.002967      0.452702     -0.011155
O	      4.08993      8.37146      6.34219        -0.142571     -0.030898      0.103650
O	      4.16620      6.19325      8.21812         0.005357     -0.147331      0.087025
O	      6.26333      8.36999      8.31968        -0.010560      0.006970      0.026590
O	      6.30337      6.38357     10.44866        -0.043996      0.390728     -0.008522
O	      8.36341      8.30536     10.44633        -0.019602     -0.014298      0.060346
