# total energy = -246.64477306 eV
 
CRYSTAL
PRIMVEC
-0.047174 6.312068 6.266813 
6.311124 -0.012547 6.232414 
4.211466 4.188923 -0.012310 
PRIMCOORD
36 1
Li	      8.35634      8.39353     12.31380        -0.022427      0.013559      0.055428
Li	      6.29082     10.47899      8.35272         0.003640      0.090202      0.146179
Li	      4.17755      8.38024      8.33284        -0.083691      0.009417      0.117142
Li	      8.35919     10.26123     10.39371        -0.082252      0.020890      0.003685
Li	      6.50231      8.40540     10.37462        -0.027080      0.079734      0.004751
Li	      0.00877      2.11481      2.10861         0.121414     -0.002192      0.046635
Li	     10.25300      8.40464     10.40300         0.025137     -0.021750     -0.006770
Li	      8.38509      6.51106     10.40789         0.033123     -0.045687     -0.006486
Li	      8.35555      8.41502      8.56680        -0.012651      0.009426      0.047136
Ti	      2.09634      4.06826      2.14306         0.068581     -0.891542      0.492197
Ti	      4.26034      2.12783      6.23770        -0.008257     -0.183775     -0.536652
Ti	      6.26371      4.12013      6.20980        -0.107060     -0.041283     -0.501926
Ti	      4.21175      4.21213      4.05652         0.101664     -0.091858     -0.208968
Ti	      4.05703      6.42156      6.27497        -0.273169      0.413873     -0.226907
Ti	      6.25702      6.40085      8.51843        -0.079806      0.279592      0.553702
Co	      2.08954      2.09150      4.11192         0.026630      0.149415     -0.174938
Ni	      0.03444      6.31076      6.21058        -0.131059     -0.110069     -0.018976
Ni	      6.24749      8.41981      6.24894         0.058263     -0.105825     -0.154914
O	      2.08129      2.20519      2.04330        -0.044710      0.548060     -0.241320
O	      4.13604      4.20371      2.07477        -0.126321      0.039335      0.139250
O	      4.18001      2.21905      4.26235         0.396824      0.332473      0.449699
O	      6.25215      4.17174      4.21338        -0.122021     -0.234154      0.249902
O	      6.22592      2.07420      6.26507        -0.159983      0.274696      0.072232
O	      8.38839      4.26715      6.29810        -0.066131      0.234221     -0.023442
O	      2.15596      4.23324      4.13582         0.121784      0.235574     -0.183567
O	      4.19773      6.18220      4.27508        -0.364976     -0.261100      0.362592
O	      4.16848      4.20551      6.19232         0.184758     -0.006444     -0.000491
O	      6.27467      6.24996      6.28706         0.059950     -0.118491      0.421927
O	      6.37311      4.26211      8.22339         0.154468      0.056183     -0.068545
O	      8.28582      6.21978      8.21434        -0.155923      0.026596     -0.127265
O	      2.15210      6.26195      6.30704         0.386005      0.138749      0.029980
O	      4.21876      8.31508      6.23409        -0.117109     -0.349909      0.021491
O	      4.29827      6.26946      8.20506         0.196367     -0.004452     -0.241969
O	      6.27358      8.25571      8.28266         0.029712     -0.459730      0.113858
O	      6.26884      6.29853     10.35816         0.008187      0.010975     -0.586581
O	      8.38436      8.39036     10.42094         0.008122     -0.034707     -0.018068
