# total energy = -249.85103297 eV
 
CRYSTAL
PRIMVEC
-0.078934 6.386997 6.233452 
6.386220 -0.057025 6.211962 
4.234222 4.220711 -0.015229 
PRIMCOORD
36 1
Li	      2.29485      6.17516      8.31440        -0.068039     -0.080025     -0.031352
Li	      4.39099      8.20845      8.29503         0.082510      0.036768     -0.000658
Li	      4.24350      6.30281     10.20741         0.036686     -0.047520      0.037365
Li	      6.32548      8.39511     10.10737         0.018187     -0.039313      0.010381
Li	      8.44068      4.26464      8.28207        -0.008260      0.109242      0.031965
Li	      8.42267      6.33257      6.24615         0.043504      0.005385      0.069425
Li	      8.28064      6.37950     10.32566        -0.073872     -0.023578     -0.023058
Li	      8.28589      8.61545      8.39473         0.014450     -0.109420      0.065885
Li	      6.15074      6.46262      8.37463         0.082411     -0.017412      0.060430
Ti	      6.25137      6.35255     12.36288         0.074947     -0.074483     -0.368208
Ti	      8.46219      8.40582     12.33828        -0.013339     -0.084638     -0.457446
Ti	     10.39301      6.37714      8.34907        -0.732749      0.249171      0.170969
Ti	      2.21236      2.09660      3.99477         0.066247      0.230327      0.069523
Ti	      4.24036      4.15672      4.05892        -0.182735     -0.086727     -0.065558
Ti	      6.36449      4.26800      6.24434         0.082195      0.181765      0.238079
Co	      6.32431      4.16251     10.26695        -0.022003     -0.044422      0.019473
Co	      6.36586      8.42453      6.33938        -0.111013      0.139262     -0.008864
Cu	      4.13601      6.31901      6.44434        -0.078941     -0.055421     -0.064432
O	      1.97011      2.15947      2.13448         0.055221      0.012566     -0.031511
O	      4.16164      4.39622      2.11162        -0.010354      0.097379      0.033266
O	      4.15921      2.22082      4.05138        -0.039600      0.006456     -0.087356
O	      6.28120      4.28318      4.19292         0.030918     -0.034847     -0.058553
O	      6.43110      2.08945      6.31274         0.090060     -0.088529      0.035788
O	      8.45831      4.09376      6.21953         0.114211     -0.047791     -0.021576
O	      2.22159      4.12125      4.25100         0.151924     -0.080361      0.040998
O	      4.33464      6.27278      4.10284         0.018947     -0.091854      0.043938
O	      4.41245      4.12876      6.04949         0.071787     -0.051469     -0.070984
O	      6.45558      6.16938      6.04981         0.081060     -0.208084      0.018582
O	      6.38711      4.17302      8.17114        -0.026897     -0.193570     -0.268277
O	      8.58800      6.31135      8.32225         0.659038      0.064911      0.028268
O	      1.84128      6.48262      6.25438        -0.122314      0.157305     -0.005757
O	      4.05580      8.66550      6.28041        -0.139544      0.132275      0.085230
O	      4.20385      6.32559      8.36247        -0.035352      0.002730     -0.101183
O	      6.33677      8.43056      8.22979        -0.004683     -0.031789     -0.126936
O	      6.27253      6.35502     10.52924        -0.098635      0.042299      0.305075
O	      8.39533      8.41394     10.51530        -0.005976      0.023411      0.427066
