# total energy = -253.02629936 eV
 
CRYSTAL
PRIMVEC
0.018200 6.243098 6.342897 
6.273906 0.020424 6.340984 
4.184337 4.162431 0.012018 
PRIMCOORD
36 1
Li	      6.29963      6.26812     12.50504        -0.037374     -0.018146     -0.017339
Li	      4.15754      2.08510      2.18419         0.050153     -0.002325      0.031689
Li	      4.28631      6.24141     10.53297        -0.040771      0.016393      0.004601
Li	      2.10175      4.11906      2.17661        -0.054180      0.059559     -0.007552
Li	      2.12750      2.05305      4.16753         0.075796     -0.015049      0.026418
Li	      6.30269      4.16249      6.29672         0.034277      0.011478      0.032244
Li	      6.29280      4.35203     10.51842        -0.022041      0.039251     -0.048793
Li	      8.25681      6.25928     10.55770        -0.006344      0.033384     -0.072745
Li	      8.38135      8.36933      8.58970         0.022613     -0.007615      0.019387
Ti	      2.20012      8.32229      6.27140         0.101365      0.108541     -0.410389
Ti	      6.25973      2.22836      8.47102        -0.316182      0.698803     -0.197819
Ti	      4.22192      6.32397      6.36970         0.171423      0.123955      0.400083
Ti	      4.20707      4.16217      4.19525         0.130033     -0.308765     -0.327284
Ti	      8.36846      6.11335      6.38775         0.051865     -0.352048      0.171426
Ti	      6.21881      8.29537      6.35621        -0.252320     -0.103965      0.157639
Co	      6.28485      4.16475      2.16585         0.047808     -0.129867      0.025085
Co	      6.32797      8.27016     10.54700        -0.016874      0.203077     -0.008936
Co	      6.30876      6.18355      8.54816         0.110138     -0.090028      0.068791
O	      1.99564      2.06158      2.00679         0.010732     -0.012676     -0.058570
O	      4.14042      4.25362      2.27557         0.063776      0.003903      0.349906
O	      4.17188      2.16838      4.34591        -0.051542      0.181929     -0.053643
O	      6.15310      4.11451      4.24857        -0.173725      0.039497      0.016789
O	      6.26342      2.08071      6.45889         0.163508      0.023224      0.083237
O	      8.37728      4.21856      6.36320        -0.001925     -0.002552     -0.035278
O	      2.19271      4.14506      4.38411         0.116588      0.019772      0.092805
O	      4.22381      6.16674      4.25198        -0.016644     -0.048841      0.059951
O	      4.13648      4.16005      6.26660         0.021152      0.073252     -0.135719
O	      6.33418      6.22226      6.35821        -0.206568      0.130161     -0.112438
O	      6.27813      4.08604      8.51387        -0.010789     -0.665071      0.007593
O	      8.43118      6.26945      8.38200         0.139485      0.019772      0.061976
O	      2.16327      6.25095      6.32169        -0.033977      0.034115      0.002473
O	      4.19326      8.38151      6.32650        -0.096165     -0.004270     -0.042033
O	      4.20432      6.26319      8.28598        -0.166637     -0.020253     -0.329967
O	      6.26680      8.33623      8.30888         0.038726      0.206863     -0.132733
O	      6.28441      6.32609     10.52804         0.013372     -0.246844     -0.054772
O	      8.36153      8.37067     10.73604         0.141246      0.001386      0.433919
