# total energy = -244.85018433 eV
 
CRYSTAL
PRIMVEC
0.028742 6.341548 6.434446 
6.209815 0.043235 6.420820 
4.142193 4.220836 0.026454 
PRIMCOORD
36 1
Li	     10.19141      4.26418      6.33777        -0.002971      0.031974     -0.050117
Li	      8.28422      2.33695      6.35600        -0.089433      0.085945     -0.083260
Li	      6.31990     10.52195      8.66732        -0.024590      0.015164      0.076520
Li	      8.27305      4.21629      4.44060        -0.048798     -0.009843      0.071373
Li	      6.16909      2.22071      4.37820         0.015570      0.094204      0.142608
Li	      4.18649      4.18113      4.35392         0.054643      0.042477      0.063770
Li	      4.19772      1.99718      6.31897        -0.001780      0.006823     -0.010081
Li	      4.15925      8.48570      4.43969        -0.029799      0.051512     -0.007766
Li	      4.13898      6.40765      6.46192         0.033929     -0.047378      0.012344
Ti	      4.10895      2.17998      2.10691         0.426199      0.134256     -0.610406
Ti	      4.13451      6.14993      2.08713        -0.348313      0.252098     -1.526791
Ti	      8.32291      6.57055     10.75919        -0.361430      0.407775      0.416917
Ti	      6.24086      6.26408      4.28713         0.246570     -1.133125      0.864655
Ti	      2.22933      4.27159      6.40348         0.582044     -0.266070     -0.151065
Ti	      6.18639      6.20639      8.61545        -0.184989     -0.921516     -0.112394
Cu	      8.43094      4.16626      8.32665         0.097420     -0.097169     -0.245767
Cu	      4.13609      4.43501      8.61248         0.123528      0.038145      0.016890
Ni	      6.24616      4.23188      6.40762        -0.317802     -0.404135     -0.254587
O	      2.04173      2.01387      2.23758        -0.049412      0.106517      0.391427
O	      4.26706      4.25537      2.18908         0.071153     -0.273314      0.103874
O	      4.04819      2.19436      4.14639        -0.599927     -0.033627     -0.248735
O	      6.18387      4.39529      4.36143         0.002730      0.714415     -0.602513
O	      6.19157      2.17316      6.63381         0.008217     -0.655725      0.831329
O	      8.23729      4.27924      6.33319         0.784359     -0.007752      0.096992
O	      2.02001      4.12809      4.50195         0.028672      0.081077      0.037462
O	      4.09962      6.36351      4.18760         0.270813      0.012071     -0.156589
O	      4.08263      4.25457      6.41629        -0.708981      0.012333      0.094419
O	      6.20604      6.41453      6.48585        -0.023725      1.335617     -0.140765
O	      6.23163      4.30938      8.53586        -0.044118      0.422082      0.720756
O	      8.30641      6.34751      8.73524         0.141520      0.046910      0.088694
O	      2.11574      6.20727      6.26310        -0.033371      0.094931     -0.208255
O	      4.22360      8.50651      6.62577        -0.149990     -0.070832      0.377307
O	      4.25195      6.53967      8.60716         0.018533      0.153883     -0.021232
O	      6.13062      8.36535      8.48869        -0.142858      0.138705      0.180966
O	      6.34451      6.35661     10.53732         0.216482      0.069581     -0.084853
O	      8.28037      8.38085     10.81585         0.039907     -0.428010     -0.073128
