# total energy = -246.70344169 eV
 
CRYSTAL
PRIMVEC
0.074650 6.187465 6.546575 
6.306719 0.060136 6.558237 
4.214908 4.143061 0.030668 
PRIMCOORD
36 1
Li	      0.28764      6.19269      6.63559        -0.075344      0.065069     -0.033817
Li	      2.14481      8.12104      6.54186         0.006879      0.015469     -0.153434
Li	      2.15294      6.24984      8.48967         0.008061      0.016434      0.051633
Li	      4.28836      6.21772     10.90574         0.002729     -0.027584     -0.071787
Li	      4.21929      6.16147      2.31131        -0.011964      0.029002      0.026110
Li	      4.24501      2.08868      6.55162         0.045880     -0.022296      0.042944
Li	      2.14362      6.11631      4.64172        -0.010985      0.023826     -0.037775
Li	      4.08065      6.17870      6.58191         0.049690     -0.009054     -0.005069
Li	      4.28866      4.16436      8.76728        -0.002905     -0.016139      0.033739
Ti	      6.26450      2.07462      4.41000        -0.055791     -0.090013     -0.028573
Ti	      8.57277      4.28731      8.63097         0.036527      0.238375     -0.220148
Ti	     10.40190      8.29446     11.07896        -0.146363      0.067823      0.300995
Ti	      2.19879      2.11698      4.27657        -0.017623     -0.002517     -0.108062
Ti	      6.23833      4.13551      6.61407        -0.146650     -0.094837      0.019067
Ti	      6.26191      6.37238      8.62934        -0.079291      0.089517      0.056405
Cu	      4.20252      8.25775      8.40072        -0.095439     -0.086990     -0.118649
Cu	      4.16193      4.14256      4.42190        -0.146194     -0.120781      0.045914
Cu	      6.44493      8.41735      6.90047         0.041545     -0.080685      0.021728
O	      2.08635      2.08076      2.43207         0.035856     -0.018465      0.117983
O	      4.11325      4.17855      2.14798        -0.075105     -0.045686     -0.024762
O	      4.27604      2.06448      4.47552         0.087769      0.033407      0.063291
O	      6.44892      4.21358      4.57798         0.056745      0.048837      0.034163
O	      6.33085      2.17434      6.33874         0.023449      0.088664     -0.072277
O	      8.29575      4.08715      6.78616         0.029700      0.057162      0.254094
O	      1.96908      4.05891      4.17172        -0.040306      0.047694     -0.060930
O	      4.40050      6.31713      4.39520        -0.044556     -0.009445      0.014623
O	      4.41095      4.10345      6.68081         0.247800      0.073009     -0.061531
O	      6.37609      6.15432      6.56840         0.013889      0.045955     -0.073120
O	      6.38346      4.26805      8.67729        -0.008511     -0.025760     -0.050324
O	      8.36582      6.14976      8.69574         0.028218     -0.266438      0.028695
O	      2.17745      6.20244      6.55856         0.012602     -0.029347      0.065526
O	      4.22079      8.34517      6.29600        -0.086547     -0.040426     -0.357673
O	      4.44617      6.26588      8.68221         0.086045      0.098694      0.023073
O	      6.50707      8.29439      9.00974         0.096910      0.004744      0.179120
O	      6.34869      6.28157     10.74075        -0.001610     -0.047731      0.051213
O	      8.49739      8.30245     10.90298         0.134892     -0.009488      0.047617
