# total energy = -250.52802168 eV
 
CRYSTAL
PRIMVEC
-0.012160 6.241120 6.276822 
6.261618 -0.013671 6.278236 
4.196876 4.184247 -0.031518 
PRIMCOORD
36 1
Li	     10.28758      4.19319      6.25023        -0.040483      0.034266     -0.058143
Li	      8.35065      2.24684      6.23548         0.015356     -0.015900     -0.065365
Li	      2.11187      6.20669      8.37401         0.043136     -0.054193     -0.029892
Li	      8.30615      4.20376      4.28452        -0.023916      0.085981      0.012376
Li	      6.34292      6.17042      4.18384         0.060686     -0.023971      0.165399
Li	      4.19818      4.14709      4.19106        -0.008576     -0.041580      0.092729
Li	      6.42674      4.19888      6.19184         0.023830      0.129090     -0.063327
Li	      2.11176      4.15004      6.28062         0.073020     -0.082099      0.014472
Li	      8.32624      8.33703      8.33859        -0.048284     -0.033493     -0.056924
Ti	      4.09121      2.20688      2.06617         0.156578     -0.166021      0.324647
Ti	      6.24401      2.22823      4.23269        -0.575323      0.634853      0.173763
Ti	      0.07332      2.04268      1.98015        -0.422660     -0.091150     -0.603293
Ti	      2.04371      6.20986      4.22864        -0.120581     -0.136803      0.298707
Ti	      4.16143      8.35456      4.23489         0.257554      0.108248     -0.017333
Ti	      4.25540      6.07509      6.32856         0.310661     -0.384263      0.232933
Fe	      6.30719      6.17203      8.28626        -0.023497      0.070770     -0.137676
Co	      4.14879      2.10493      6.23084         0.495659      0.070035     -0.275583
Cu	      2.18245      4.02081      1.87963         0.112962     -0.143288     -0.169023
O	      2.09171      1.98755      2.12119        -0.184754      0.114520      0.055452
O	      4.30049      4.20878      2.04192        -0.079027      0.172801     -0.009334
O	      4.21225      2.11255      4.03973         0.271139      0.046514     -0.781432
O	      6.27384      4.03566      4.16631        -0.011085     -0.827019      0.005714
O	      6.30572      2.09153      6.30650         0.320367     -0.051023      0.362720
O	      8.35723      4.23099      6.17328         0.019236      0.114088      0.168115
O	      1.94461      4.23361      4.23151        -0.346336      0.254889     -0.074397
O	      4.14049      6.28181      4.15785        -0.092232      0.215907     -0.076692
O	      4.17189      4.24818      6.29202         0.036331      0.290797      0.018186
O	      6.18082      6.27350      6.19429        -0.631575     -0.064495      0.022393
O	      6.16530      4.09040      8.54264         0.014426     -0.167767      0.307419
O	      8.47875      6.30230      8.47135         0.382458     -0.092393      0.566846
O	      2.24526      6.24863      6.12253         0.123284     -0.004012     -0.422988
O	      4.16007      8.31627      6.27380        -0.020639     -0.046791     -0.110114
O	      4.13669      6.34956      8.23965         0.000960      0.190506     -0.257217
O	      6.14264      8.26998      8.46070        -0.179418      0.088221      0.329105
O	      6.30007      6.21792     10.48947         0.171360     -0.120588      0.062797
O	      8.31773      8.26586     10.45336        -0.080614     -0.074637     -0.005039
