# total energy = -92.39877995 eV
 
CRYSTAL
PRIMVEC
1.959591 4.059816 1.995359 
4.046128 -4.124212 0.001507 
4.030736 -0.013937 -4.074655 
PRIMCOORD
16 1
Li	      3.93798      3.93566     -0.05693        -0.220192      0.296594      0.402589
Li	      3.94153      1.91173      1.89159        -0.074600      0.368763      0.316799
Li	      3.90773      0.02276     -0.00099        -0.128401     -0.338171     -0.049250
Li	      3.93893     -1.96019     -1.97289         0.028631     -0.286392     -0.065915
Mn	      9.80862     -0.07499     -2.03541         2.191020      0.071855     -1.002284
Mn	      1.98027      1.98587     -0.04709        -1.883533      0.512090      0.602416
Ni	      3.89578      1.96920     -1.99585        -0.466037      0.430315     -0.790406
Ni	      5.94168     -0.02967     -1.97864         0.389180      0.350884     -0.269330
O	      5.87129     -0.19607      0.03881         0.173967      0.026585      0.827754
O	      5.91468     -1.98514     -1.86416         0.250048     -0.916473     -0.817466
O	      3.77813      1.94933     -0.04144         1.049310      0.288686      0.729216
O	      3.98387     -0.00808     -2.15542        -0.985692     -0.448186     -0.013025
O	      7.96265     -0.08623     -2.03022         0.235102      0.228296      0.051236
O	      4.01800     -2.19118     -0.01894        -0.452142     -0.526298      0.193912
O	      5.90026      2.04853     -2.12310         0.600847      0.555827      0.011217
O	      1.87410      0.11207      0.02678        -0.707505     -0.614374     -0.127462
