# total energy = -246.28831979 eV
 
CRYSTAL
PRIMVEC
-0.006703 6.263236 6.290173 
6.371664 -0.026736 6.310490 
4.251515 4.192885 -0.021751 
PRIMCOORD
36 1
Li	      4.30805      4.14192      0.16739         0.081479      0.030889     -0.066083
Li	      6.14596      4.15398      2.03434        -0.062039      0.007134     -0.107806
Li	      4.20096      6.09071      2.17097        -0.051836      0.037304      0.008122
Li	      2.31851      4.22482      2.11768        -0.057796      0.031745      0.024556
Li	      4.19655      4.23124      3.98793        -0.055774     -0.014677      0.077836
Li	      0.04347      4.15475      4.17472         0.085702      0.023290      0.015316
Li	      2.18003      6.18481      4.19659        -0.009344     -0.059383      0.130032
Li	      2.08433      4.29071      6.26462         0.017807      0.114604     -0.076391
Li	      4.27230      4.16253      8.39378         0.034053      0.016743     -0.033850
Ti	      2.24041      8.24790      6.36746         0.283352     -1.035110     -0.043162
Ti	      6.38902      8.34170     10.37240         0.124708     -0.021051     -0.031602
Ti	      4.31473      2.14708      6.37959        -0.304673      0.033307      0.077642
Ti	      6.33859      4.11285      6.39287        -0.043918      0.260418      0.199481
Ti	      1.99716      2.20258      4.03267         0.093526      0.685859      0.126016
Ti	      6.36238      6.28444      8.44052         0.195802     -0.103750     -0.234465
Fe	      4.21697      6.21344     10.42290         0.015049     -0.039265      0.100567
Cu	      4.24142      2.27587      2.00274         0.029502      0.018757     -0.099826
Ni	      4.20207      6.23394      6.27588         0.383919     -0.167217     -0.195122
O	      2.02162      2.08464      2.12230        -0.065541     -0.034527      0.264676
O	      4.23039      4.23694      2.07247        -0.032827     -0.104397      0.058912
O	      4.28048      2.06182      4.39524         0.065223      0.014605      0.142837
O	      6.36444      4.15809      4.28104        -0.104743     -0.059683     -0.038550
O	      6.35409      2.09694      6.24884        -0.140251      0.103123     -0.003156
O	      8.39847      4.14021      6.26069        -0.030691      0.033007      0.050442
O	      2.12262      4.02197      4.20960        -0.029628     -0.606527     -0.107439
O	      4.40357      6.26823      4.23362        -0.178420     -0.045053      0.686802
O	      4.34049      4.14439      6.31479         0.335918     -0.260463     -0.004439
O	      6.44348      6.19978      6.27022         1.129144     -0.133101      0.071421
O	      6.35400      4.25406      8.29489        -0.049021      0.142733     -0.097083
O	      8.38357      6.25795      8.26831        -0.047307      0.010693     -0.149198
O	      2.15167      6.37591      6.30276        -1.325976      0.670098      0.093888
O	      4.08337      8.32544      6.18966        -0.009856      0.363086     -0.035698
O	      4.41921      6.26264      8.36250        -0.033609      0.030021     -0.663844
O	      6.49283      8.31442      8.45426         0.015985     -0.056958      0.208941
O	      6.37775      6.30858     10.39024        -0.006631      0.157420     -0.282668
O	      8.32936      8.31249     10.65507        -0.251291     -0.043678     -0.067105
