# total energy = -250.49909354 eV
 
CRYSTAL
PRIMVEC
-0.043087 6.325105 6.408723 
6.273880 -0.040556 6.405976 
4.155147 4.187363 0.000246 
PRIMCOORD
36 1
Li	      6.23752      4.18857      2.16575         0.057007      0.035538      0.002476
Li	      8.31666     10.40735     10.65592         0.018604      0.072822      0.002589
Li	      8.32203      4.18133      8.54303        -0.004539     -0.012583      0.019101
Li	      8.23675      6.24768      6.52179        -0.024050     -0.017230     -0.012159
Li	      6.25351      4.25252      6.41670        -0.001899     -0.006544     -0.022227
Li	      6.26937      4.27250     10.55276         0.038387      0.001143     -0.017687
Li	      8.23434      6.26079     10.63463         0.091768     -0.055522     -0.001384
Li	      2.14104      4.15537      6.39777        -0.033642     -0.049498     -0.023285
Li	      8.28477      8.40180      8.55336         0.014563      0.038404     -0.073683
Ti	      6.23761      6.28111     12.73358        -0.126406      0.029491     -0.201377
Ti	      8.28569      8.42083     12.69213        -0.080029      0.193798     -0.171075
Ti	      4.29244      8.31968      8.57341         0.190007     -0.174161      0.148030
Ti	      6.12026      2.22658      8.55318        -0.156619      0.225402      0.000609
Ti	      6.22598      6.28824      4.29978         0.087517      0.049701      0.087014
Ti	      4.14831      4.17740      4.36771        -0.077720     -0.058225      0.167913
Fe	      4.08629      6.26197      6.46938         0.044402     -0.062244      0.023070
Cu	      6.39395      8.38888     10.46652         0.075028     -0.073338     -0.131428
Cu	      6.35652      6.17949      8.57502         0.033160     -0.052390      0.013459
O	      2.04064      2.10266      2.19115         0.037895     -0.025642     -0.049231
O	      4.15917      4.13178      2.16423        -0.003126     -0.068040      0.012232
O	      4.05434      2.15100      4.16438        -0.049038     -0.028790     -0.067947
O	      6.13132      4.29274      4.26622        -0.052763     -0.006811      0.016751
O	      6.33396      1.96365      6.61516        -0.054889      0.052496      0.023434
O	      8.42713      4.08047      6.41893         0.051797     -0.126155     -0.014637
O	      2.15224      4.09568      4.25801         0.039434     -0.028797      0.031330
O	      4.17732      6.20171      4.14146        -0.057329     -0.006205      0.048885
O	      4.14406      4.15168      6.22606         0.018413     -0.054554     -0.159359
O	      6.12612      6.29444      6.18580         0.093213     -0.009223     -0.130517
O	      6.23951      4.04482      8.54723        -0.121000     -0.122701     -0.040138
O	      8.44436      6.25830      8.55054         0.028790      0.071414      0.007822
O	      2.01717      6.42316      6.42060        -0.132078      0.061996      0.014091
O	      4.03625      8.48790      6.57781         0.018349     -0.020617      0.024180
O	      4.08258      6.44368      8.58734         0.095834      0.101895      0.039823
O	      6.11879      8.46349      8.44966        -0.002560      0.065250     -0.044443
O	      6.25696      6.22985     10.90857        -0.050328      0.072105      0.281386
O	      8.37499      8.38753     10.85894        -0.006152     -0.012185      0.196378
