# total energy = -254.82607749 eV
 
CRYSTAL
PRIMVEC
0.014579 6.296265 6.339229 
6.273747 -0.009954 6.363718 
4.188883 4.220121 -0.013151 
PRIMCOORD
36 1
Li	      6.38026     10.43927      8.46908         0.054855     -0.063850     -0.000195
Li	      4.16764      0.01212      4.23271         0.001184     -0.023162      0.024740
Li	      6.30439      8.39708     10.52727         0.076049      0.030580     -0.036986
Li	      6.30942      6.31632      4.25629         0.005562      0.038720     -0.012307
Li	      4.14230      2.11402      6.28107        -0.046032      0.023298     -0.060822
Li	      2.08553      6.30718      4.27976        -0.011196     -0.018909      0.066781
Li	      2.16687      4.23969      6.35247         0.008773      0.074142     -0.013610
Li	      4.17331      6.28090      6.38332         0.014307     -0.026004      0.151304
Li	      8.29774      8.46790      8.43711        -0.006688      0.041823      0.000633
Ti	      2.08773      8.22882      6.23371         0.344115     -0.345224     -0.742096
Ti	      4.22492      8.36952      8.51244         0.138667     -0.112566      0.050369
Ti	      4.09032      6.21113      2.13016        -0.022800     -0.239614     -0.147259
Ti	      2.17082      4.25494      2.11057        -0.081776     -0.007652      0.389154
Ti	      6.17948      4.28787      6.20725        -0.136839      0.187863     -0.177282
Ti	      6.32341      6.31614      8.55622        -0.022146      0.330020     -0.157763
Fe	      4.18376      4.19856      4.32846        -0.129771     -0.056034      0.001358
Fe	      4.20372      8.40160      4.23508        -0.176502      0.005460      0.697907
Co	      6.26933      0.09568      6.32587         0.094620     -0.046885      0.008665
O	      2.07916      2.13712      2.01702        -0.029508     -0.056416      0.030912
O	      4.25163      4.17707      2.11259        -0.074126      0.114436     -0.019820
O	      4.15860      2.16614      4.06996         0.019140     -0.111084     -0.222451
O	      6.32703      4.21480      4.36350         0.030542      0.011010      0.256847
O	      6.33958      2.22214      6.45322        -0.072439      0.113514      0.149178
O	      8.26817      4.13934      6.47790        -0.026725      0.042051      0.015869
O	      2.03746      4.19072      4.06506         0.647290     -0.012276     -0.435093
O	      4.20220      6.25049      4.04186        -0.001357      0.518744     -0.317305
O	      4.29194      4.18685      6.40292         0.236284      0.058494      0.049508
O	      6.31075      6.17940      6.46026        -0.050522     -0.213024      0.098176
O	      6.31079      4.18392      8.40176        -0.025875     -0.000979      0.018928
O	      8.36966      6.31971      8.44284         0.041712     -0.071680     -0.010995
O	      2.14215      6.37386      6.33554        -0.034617      0.264472     -0.000594
O	      4.05889      8.41861      6.45583         0.008465     -0.073564      0.161666
O	      4.30161      6.41266      8.48042         0.030685      0.093065      0.006362
O	      6.20190      8.30079      8.41306        -0.056827     -0.086311      0.063736
O	      6.31182      6.32281     10.43987        -0.040905     -0.376449     -0.273386
O	      8.42701      8.40686     10.72912        -0.705600     -0.006009      0.385871
