# total energy = -252.03683968 eV
 
CRYSTAL
PRIMVEC
-0.010345 6.369792 6.226522 
6.328298 -0.022173 6.238485 
4.202830 4.238565 0.001265 
PRIMCOORD
36 1
Li	      0.26737      6.35927      6.26335        -0.030929     -0.010561      0.015229
Li	      2.08908      8.23873      6.26395         0.014814      0.051160      0.024117
Li	      2.12052      6.35847      8.08695         0.016375     -0.006181      0.064434
Li	      8.42229      4.21639      8.24807        -0.012668     -0.018991     -0.053393
Li	      8.39117      6.37350      6.24806        -0.003103      0.014017     -0.006578
Li	      2.11792      6.33826      4.35328        -0.008481      0.038080     -0.048088
Li	      2.15582      4.49312      6.25889        -0.001374     -0.046655      0.013709
Li	      3.99309      6.30590      6.29763         0.118212     -0.025509      0.007044
Li	      4.14633      4.21542      8.22753         0.019683     -0.008278      0.013774
Ti	      4.14003      8.47209      8.17216        -0.053545     -0.018764     -0.187664
Ti	      8.43692     10.54901     10.43400        -0.037366     -0.074931      0.170690
Ti	      6.36747      8.40497     10.39222         0.058812      0.002597     -0.055762
Ti	     10.35895      6.22095      8.26033        -0.753442     -0.034550      0.042318
Ti	      4.23078      8.53037      4.26230         0.086535      0.016381     -0.054890
Ti	      6.26181      4.33004      6.36124        -0.103058      0.291811      0.110755
Fe	      2.08577      2.16484      4.15929         0.082993     -0.066545      0.023689
Fe	      4.08363      4.28395      4.19305        -0.171681      0.066074     -0.095943
Cu	      6.45286      6.46668      8.14319         0.050842      0.123574     -0.211651
O	      2.23399      2.15625      2.12859         0.030219     -0.041945     -0.150352
O	      4.19098      4.27584      2.08625         0.080328     -0.044182     -0.229019
O	      4.31280      2.05021      4.10573         0.065525      0.014079      0.025237
O	      6.34714      4.11065      4.27011        -0.100545     -0.062499     -0.042035
O	      6.34752      2.14973      6.24160         0.025149     -0.021029     -0.006085
O	      8.26159      4.24645      6.10504         0.013874     -0.026471     -0.172075
O	      1.96016      4.27138      4.16063        -0.080382      0.111586      0.100029
O	      4.18421      6.46689      4.01012        -0.052521     -0.000384     -0.053731
O	      4.37661      4.21588      6.22911        -0.022854     -0.005070      0.257090
O	      6.32483      6.20926      6.14669        -0.014712     -0.153015      0.198955
O	      6.33150      4.04154      8.30050         0.028002     -0.091230      0.028057
O	      8.55239      6.29495      8.26209         0.594632     -0.068748      0.029407
O	      2.13038      6.35838      6.22758         0.043945      0.010875      0.001429
O	      4.19202      8.49091      6.24279         0.025180      0.008666     -0.002278
O	      4.15428      6.52379      8.44430         0.007560      0.030846      0.035221
O	      6.18666      8.53038      8.46015         0.018021      0.020733      0.096431
O	      6.27288      6.32881     10.46075         0.074132     -0.001633      0.066072
O	      8.43157      8.52028     10.32585        -0.008172      0.026693      0.045855
