# total energy = -251.56941460 eV
 
CRYSTAL
PRIMVEC
0.031056 6.274146 6.308341 
6.417721 -0.040045 6.379747 
4.250922 4.202617 0.000773 
PRIMCOORD
36 1
Li	      4.33551      4.15797      0.14915        -0.018332     -0.002426      0.015018
Li	      2.14712      2.06180      0.07855         0.035712     -0.020089      0.039896
Li	      6.16151      4.25166      2.04082        -0.043880      0.022990     -0.011915
Li	      4.26405      6.08987      2.08816         0.020500     -0.044729     -0.063468
Li	      2.32748      4.19679      2.15309         0.006424      0.013758     -0.053330
Li	      4.19746      4.26636      4.03345         0.005570      0.003307     -0.045026
Li	      4.33421      8.37488      4.27365         0.003020     -0.008993      0.045288
Li	      2.16129      6.17584      4.21648        -0.023504     -0.019842      0.012095
Li	      2.08137      4.25856      6.25599        -0.054822     -0.027533     -0.016754
Ti	      8.54604     10.38751     10.52309        -0.103280      0.005112      0.142279
Ti	      6.39906      2.11980      4.32383         0.088058      0.025734     -0.013580
Ti	      2.11834      2.21654      4.10083        -0.057247      0.323418     -0.364123
Ti	      6.48094      4.12873      6.30776         0.061348     -0.086261      0.006490
Ti	      4.12333      6.36113      6.29461        -0.316353      0.235464     -0.059181
Ti	      6.50144      6.19839      8.51984         0.179564     -0.071580      0.108138
Fe	      4.30657      2.13737      6.39689        -0.050436      0.003352      0.053313
Fe	      8.53291      8.33757      8.47017         0.065967      0.004822     -0.001195
Ni	      4.24755      2.21549      2.07313        -0.004177     -0.021605     -0.102137
O	      2.15298      2.07790      2.25809        -0.085799      0.067315      0.399674
O	      4.26461      4.16321      2.07998         0.002549      0.225280      0.006619
O	      4.26486      2.03115      4.21919         0.011495     -0.099637      0.033982
O	      6.41039      4.19898      4.26146         0.155256     -0.010038     -0.003971
O	      6.44666      2.12251      6.32173         0.040985      0.104191     -0.046387
O	      8.44708      4.25116      6.26016        -0.046918     -0.175292     -0.159443
O	      2.15845      4.03634      4.24903         0.017120     -0.325366     -0.018929
O	      4.42387      6.28030      4.36629         0.044031      0.017051      0.084118
O	      4.42924      4.22364      6.34999         0.013831      0.162810     -0.133745
O	      6.38047      6.21875      6.36214        -0.133053     -0.030788      0.064747
O	      6.35081      4.25086      8.39510         0.062954      0.170669     -0.080404
O	      8.41096      6.21503      8.51469        -0.130448     -0.049906      0.078722
O	      2.31169      6.24168      6.30494         0.421174     -0.049259     -0.023830
O	      4.27852      8.23477      6.34672         0.005580     -0.319881     -0.066636
O	      4.36583      6.31353      8.40832         0.129607     -0.000489      0.116718
O	      6.43067      8.24754      8.55484        -0.037742     -0.113732      0.037146
O	      6.39875      6.28228     10.50252        -0.178124     -0.017659     -0.064320
O	      8.46367      8.41081     10.59006        -0.086633      0.109832      0.084132
