# total energy = -256.42319030 eV
 
CRYSTAL
PRIMVEC
0.037567 6.329795 6.242715 
6.323368 0.037341 6.243183 
4.216770 4.221280 0.024340 
PRIMCOORD
36 1
Li	      4.27219     10.44450      6.24562         0.021337     -0.052552      0.007428
Li	      2.19572      8.44281      6.24859        -0.009660      0.014101      0.014497
Li	      4.26506      8.44443      8.31161         0.021837      0.009619      0.045087
Li	      2.18948      2.15520      4.20464         0.055343     -0.010141     -0.025671
Li	      8.31222      6.34316      6.24088        -0.080733     -0.022917     -0.055095
Li	      6.36544      4.32164      6.21207         0.010116      0.032518     -0.012458
Li	      2.09440      6.29526      4.27706        -0.019279     -0.000984      0.027994
Li	      6.32137      8.43440      6.26529        -0.001721      0.031323      0.090550
Li	      6.35986      6.39729      8.28533        -0.039828     -0.005968      0.015437
Ti	      2.02991      0.08738      2.02307        -0.025458      0.036419     -0.220819
Ti	      6.30470      2.04782      4.27199        -0.091655     -0.270759      0.025280
Ti	      6.32124      2.14956      8.21107        -0.023789     -0.098512     -0.136497
Ti	      8.44561      4.26719      8.25718         0.035895      0.026309     -0.311205
Ti	      4.35468      6.45066      6.19783         0.152732      0.175761      0.030148
Ti	      8.50232      8.35213      8.29720        -0.022126     -0.129211     -0.061911
Fe	      8.44808      4.29327      4.30059         0.002023      0.019374     -0.025774
Fe	      4.17090      4.21733      4.26056        -0.046647     -0.052883      0.026409
Fe	      0.05855      4.26399      4.21915        -0.059821      0.095624     -0.022938
O	      2.08111      2.11483      2.10671         0.019538     -0.000702      0.017371
O	      4.21330      4.22286      2.04354         0.007812      0.083352      0.001609
O	      4.35456      2.15778      4.17700         0.158014     -0.065884      0.019395
O	      6.31931      4.14545      4.10498        -0.083095     -0.051208     -0.085124
O	      6.35499      2.14525      6.26811         0.008552      0.036157     -0.041466
O	      8.43020      4.25083      6.34004         0.021067     -0.047797      0.376211
O	      2.10028      4.25227      4.01979         0.091077     -0.055637     -0.089960
O	      4.18633      6.32259      4.17065         0.057716      0.055959      0.107629
O	      4.21652      4.31536      6.36535        -0.006395      0.041871      0.194831
O	      6.19260      6.35826      6.24299        -0.216900      0.059852     -0.070560
O	      6.34788      4.23712      8.29026        -0.027042     -0.051976     -0.033722
O	      8.44054      6.34593      8.29731         0.032770      0.110921     -0.047828
O	      2.22935      6.31920      6.37313        -0.006087      0.010132      0.177500
O	      4.23871      8.33427      6.31391         0.059255     -0.279707      0.053356
O	      4.17308      6.27270      8.28472        -0.052541     -0.043439     -0.054311
O	      6.45641      8.53685      8.45156         0.047370      0.084020      0.048815
O	      6.39549      6.46592     10.42709         0.059329      0.320006      0.048234
O	      8.44134      8.45930     10.34642        -0.049007     -0.003043     -0.032441
