# total energy = -254.79677862 eV
 
CRYSTAL
PRIMVEC
0.016098 6.370535 6.244795 
6.342806 0.020354 6.240535 
4.234721 4.250436 0.007238 
PRIMCOORD
36 1
Li	      4.36755      8.45976      8.30783         0.097554     -0.084476     -0.037281
Li	      6.36547      8.49463     10.38022        -0.026822     -0.044888      0.051163
Li	      8.40408      4.33165      8.34414        -0.042041      0.039143     -0.029438
Li	      8.44303      6.31783      6.30706         0.035187     -0.064275      0.030294
Li	      6.39483      4.28629      6.27137        -0.004202      0.012213      0.003689
Li	      6.38870      4.32036     10.36897         0.015393      0.034938      0.042133
Li	      8.38749      6.34936     10.36370        -0.095163     -0.018513     -0.007399
Li	      4.27028      6.44448      6.28041         0.042386      0.047735     -0.011000
Li	      6.35793      6.35419      8.31297        -0.000214     -0.060545     -0.046203
Ti	      2.22929      8.42250      6.27875         0.261658     -0.113319     -0.043830
Ti	      4.32459      6.38130     10.38222         0.184400     -0.017557      0.026853
Ti	      6.31401      2.26754      8.30732        -0.119230      0.280616     -0.024145
Ti	      6.38843      6.41342      4.34838         0.017859      0.142834      0.485726
Ti	      4.18262      4.21767      4.19700        -0.060323     -0.015683      0.041294
Ti	      4.08054      4.26811      8.16665        -0.169323     -0.078137     -0.138333
Mn	      4.30570     10.56822      6.31009        -0.026513     -0.053158     -0.046359
Co	      2.19721      4.22964      6.23625        -0.017321     -0.077592     -0.037748
Cu	      6.36802     10.52728      8.28279         0.017186     -0.162816     -0.107461
O	      2.00245      2.24833      2.01161        -0.105915      0.102526      0.049241
O	      4.14189      4.39035      2.23410        -0.032208      0.039658      0.111434
O	      4.16969      2.11574      4.11011         0.019284      0.000387     -0.003615
O	      6.32930      4.39022      4.19772         0.008485     -0.030525      0.062276
O	      6.44807      2.12987      6.38110         0.005907      0.034573      0.144491
O	      8.43288      4.16582      6.11713        -0.032415     -0.017140     -0.064011
O	      2.15200      4.19586      4.11195         0.086146     -0.010233      0.028069
O	      4.36467      6.28061      4.09068         0.016138      0.031217     -0.036986
O	      4.30580      4.25134      6.22935         0.041578      0.042179      0.031276
O	      6.38991      6.33960      6.18353        -0.033961     -0.007117     -0.425405
O	      6.22350      4.15021      8.36318        -0.021036     -0.194422     -0.033402
O	      8.57058      6.53438      8.33293         0.084190      0.043763      0.005255
O	      2.18469      6.54263      6.11105         0.073874      0.178450      0.011508
O	      4.11784      8.46800      6.30484        -0.232428     -0.058508     -0.022574
O	      4.30748      6.22884      8.40502         0.037215     -0.028812      0.067849
O	      6.43991      8.40235      8.36111         0.197426      0.026757      0.020178
O	      6.18709      6.40621     10.41073        -0.176560      0.004726     -0.071258
O	      8.42151      8.65605     10.43534        -0.046189      0.076003     -0.026284
