# total energy = -92.69870520 eV
 
CRYSTAL
PRIMVEC
1.969589 4.080529 2.005539 
4.066771 -4.145254 0.001514 
4.051301 -0.014008 -4.095444 
PRIMCOORD
16 1
Li	      3.97827      3.97592     -0.05751        -0.159898      0.221096      0.298059
Li	      3.98185      1.93129      1.91094        -0.054351      0.264948      0.229069
Li	      3.94770      0.02299     -0.00100        -0.095945     -0.244045     -0.041436
Li	      3.97922     -1.98024     -1.99308         0.024991     -0.203034     -0.044248
Mn	      9.90896     -0.07575     -2.05624         1.639174      0.057304     -0.748157
Mn	      2.00053      2.00619     -0.04758        -1.355909      0.355154      0.408233
Ni	      3.93564      1.98935     -2.01628        -0.331318      0.296761     -0.566650
Ni	      6.00247     -0.02997     -1.99888         0.292491      0.268161     -0.176378
O	      5.93135     -0.19808      0.03921         0.123069      0.005927      0.628263
O	      5.97519     -2.00545     -1.88323         0.153314     -0.698680     -0.566814
O	      3.81678      1.96928     -0.04186         0.725331      0.213088      0.560608
O	      4.02463     -0.00816     -2.17747        -0.752472     -0.346260     -0.015778
O	      8.04410     -0.08711     -2.05099         0.243781      0.201774      0.041353
O	      4.05910     -2.21360     -0.01913        -0.327938     -0.394120      0.108175
O	      5.96062      2.06949     -2.14482         0.451719      0.429645      0.004992
O	      1.89327      0.11322      0.02705        -0.576038     -0.427719     -0.119291
