# total energy = -253.49962253 eV
 
CRYSTAL
PRIMVEC
0.026546 6.301746 6.362803 
6.227377 0.013839 6.375607 
4.155432 4.213810 0.005266 
PRIMCOORD
36 1
Li	      6.28381      4.18388      2.23178         0.007733      0.007543      0.070675
Li	      8.24352      4.25347      4.25813        -0.005869      0.051979     -0.008726
Li	      6.21191      2.20685      4.22625        -0.023012      0.028379      0.002877
Li	      2.07244      4.15167      2.16337         0.024706     -0.031425      0.024408
Li	      2.09731      2.15615      4.25457        -0.008392     -0.006003      0.010470
Li	      4.14953      4.15762      4.31823         0.009072      0.008993      0.044374
Li	      4.11209      2.13644      6.23186        -0.005969      0.021624     -0.097483
Li	      2.15284      4.21144      6.32476         0.021909      0.021368     -0.009636
Li	      4.17433      6.27764      6.36419        -0.023181      0.002477     -0.007471
Ti	     10.32850      4.27290      6.41007         0.010408      0.078476     -0.065872
Ti	      4.17674      6.23239      2.15077         0.049074     -0.019599      0.021677
Ti	      2.11275      6.20840      4.22497         0.054063     -0.164087      0.048757
Ti	      4.13833      2.07798      2.25884        -0.155586     -0.008648      0.494270
Ti	      6.13412      4.27230      6.24947        -0.229738      0.004072     -0.520535
Ti	      6.28083      6.35219      8.52043         0.038237     -0.044536     -0.118175
Mn	      8.36717      8.44081     12.66733        -0.045250     -0.007245      0.082688
Co	      4.13601      4.25789      8.47199        -0.063016      0.094933     -0.060611
Ni	      4.19487      8.37270      4.28240         0.056983      0.051576     -0.027486
O	      2.06192      2.07037      2.13897         0.054732      0.015099      0.023719
O	      4.17183      4.18841      2.06226         0.022812     -0.033306      0.005732
O	      4.13644      2.14749      4.08574        -0.021411     -0.028802     -0.523164
O	      6.24236      4.21567      4.43196         0.021944      0.014115      0.384286
O	      6.19162      2.17012      6.44098        -0.063790     -0.012770      0.029048
O	      8.37494      4.27400      6.35774         0.010432      0.083216      0.020652
O	      2.07293      4.32252      4.25007         0.065263      0.097789     -0.028152
O	      4.12891      6.33037      4.18285         0.013968     -0.114803     -0.074629
O	      4.26777      4.22496      6.38744         0.233107      0.004484     -0.044682
O	      6.26513      6.19174      6.52839        -0.008783     -0.065088      0.167066
O	      6.27691      4.20482      8.47458         0.076026      0.064704     -0.013930
O	      8.36489      6.27772      8.53220        -0.026384      0.054143      0.005853
O	      1.98453      6.31286      6.24448        -0.010613     -0.087567      0.015591
O	      4.23066      8.54160      6.42021         0.068641     -0.072924      0.111414
O	      4.22101      6.41235      8.48130         0.109148      0.132549      0.012349
O	      6.19002      8.33577      8.50179        -0.116620     -0.159763      0.057673
O	      6.26178      6.29099     10.60883        -0.040904      0.048247     -0.033782
O	      8.35492      8.28418     10.54840        -0.099738     -0.029199      0.000753
