# total energy = -254.24426668 eV
 
CRYSTAL
PRIMVEC
0.013168 6.344372 6.289464 
6.273651 0.030173 6.272218 
4.200873 4.236584 0.001683 
PRIMCOORD
36 1
Li	      4.24718      4.22256      0.10002        -0.013635     -0.064994      0.113412
Li	      6.30911     10.45002      8.28051        -0.000445     -0.029429     -0.002416
Li	      6.27990      2.30390      8.34103         0.001742     -0.001253      0.019655
Li	      8.21189      4.26913      8.36502         0.009602     -0.024229     -0.033578
Li	      6.29239      4.26467     10.28263        -0.013290     -0.009198      0.002187
Li	      6.26625      8.46237      6.42138        -0.099207     -0.056525      0.058959
Li	      4.21555      6.37322      6.40006         0.009912      0.109376      0.101764
Li	      4.22764      4.30287      8.31041        -0.012714      0.036948     -0.004347
Li	      6.26353      6.30174      8.33705        -0.055225      0.050372     -0.027586
Ti	      2.23132      8.43619      6.39945         0.974976     -0.030144      0.283475
Ti	      4.35854      6.30603     10.37373         0.046995      0.171795     -0.539071
Ti	      2.15551      6.24084      4.15717         0.016658      0.047054      0.071588
Ti	      2.02302      2.15786      4.14397         0.131425     -0.042464     -0.283791
Ti	      4.15129      4.33660      4.06672         0.093892     -0.241364     -0.586071
Ti	      8.42577      6.41788      6.46566         0.042873      0.029214      0.022179
Mn	      6.34343      8.49383     10.35065        -0.143065      0.029726     -0.195942
Co	      4.27441      8.46276      8.30927        -0.239661     -0.030832      0.048029
Co	      6.26588      4.26437      6.43900         0.034698      0.009151      0.002750
O	      2.09572      2.11833      2.09270         0.077631      0.095507      0.381678
O	      4.19073      4.23594      2.24321         0.030826     -0.003128      0.379077
O	      4.12216      2.07884      4.28737        -0.039268     -0.040475      0.338724
O	      6.30007      4.36456      4.22899        -0.079463      0.079056      0.010317
O	      6.20029      2.09982      6.29308        -0.112725      0.078633     -0.008036
O	      8.38618      4.24733      6.20264        -0.009170     -0.009056     -0.000658
O	      2.09008      4.24218      4.20493         0.029290     -0.055601     -0.017439
O	      4.19287      6.34868      4.20580         0.014774      0.008473      0.024048
O	      4.18246      4.08527      6.17431        -0.031179     -0.105858     -0.003562
O	      6.42484      6.37165      6.14255         0.026980     -0.009968     -0.056634
O	      6.25514      4.26814      8.35136         0.015940     -0.005682     -0.041485
O	      8.38853      6.36266      8.37751        -0.028835      0.008854     -0.104552
O	      2.10899      6.50383      6.14032        -0.056539      0.036934     -0.127481
O	      4.07600      8.46432      6.31285        -0.447297      0.019599     -0.243283
O	      4.17190      6.33523      8.53610         0.083905      0.042714      0.349003
O	      6.27297      8.48975      8.32727        -0.289194     -0.042802      0.028058
O	      6.26757      6.33586     10.46402        -0.004657     -0.066742      0.000481
O	      8.43526      8.55152     10.58987         0.033446      0.016337      0.040549
