# total energy = -251.88257498 eV
 
CRYSTAL
PRIMVEC
0.005161 6.327911 6.205012 
6.369154 0.006313 6.203935 
4.245008 4.216865 0.005112 
PRIMCOORD
36 1
Li	      0.05023      6.32564      6.16851         0.097339     -0.017191      0.045761
Li	      6.36709      8.31004     10.36603         0.032144     -0.111610     -0.008516
Li	      4.19099      6.28486      2.15886        -0.053142     -0.014009     -0.030449
Li	      2.19081      4.28753      2.13927         0.066575      0.058237      0.001117
Li	      4.13743      4.34552      4.11769        -0.046854      0.046151      0.011344
Li	      2.15267      6.21929      4.11551         0.013484      0.023317      0.024722
Li	      2.15918      4.22471      6.13285         0.082513     -0.003384      0.006180
Li	      4.24445      6.31494      6.12028        -0.049399     -0.006632      0.004126
Li	      6.41678      6.33877      8.32638         0.096700      0.015193     -0.044148
Ti	      8.47249      8.43526     12.32820        -0.049149     -0.093256     -0.086967
Ti	      6.33818      4.19193      2.11592        -0.093651     -0.047492     -0.038644
Ti	      4.29882      8.44640      8.30067         0.072194      0.085788      0.064736
Ti	      6.29765      4.28465      6.20591        -0.068682      0.124942      0.036577
Ti	      0.09803      4.24467      4.13931         0.037000      0.026130      0.029776
Ti	      8.50472      8.38729      8.35705        -0.014706     -0.249285     -0.033423
Mn	      4.30384      2.03598      6.14501         0.020514      0.022005      0.055003
Cu	      4.37685      6.37948     10.33380         0.123430      0.067868      0.027484
Ni	      2.05259      2.16933      4.12048         0.025777      0.015981      0.008417
O	      2.22474      2.02060      2.01974        -0.059198      0.050729     -0.092996
O	      4.34748      4.11995      2.05431        -0.005777     -0.003405     -0.002256
O	      4.18517      2.18091      3.99206         0.075532     -0.051872     -0.116826
O	      6.28567      4.27438      4.14149         0.010553     -0.093983      0.005783
O	      6.46803      2.23177      6.16643         0.069778      0.016509      0.049294
O	      8.35999      4.07940      6.35381        -0.035416     -0.074506     -0.024852
O	      2.02474      4.20627      4.14662        -0.137712      0.135338     -0.033297
O	      4.26272      6.49142      4.12670        -0.104107      0.048275      0.007762
O	      4.34234      4.22969      6.27812         0.058868      0.079880     -0.024957
O	      6.40983      6.17281      6.17652        -0.108554     -0.110493      0.127813
O	      6.29508      4.26884      8.25704        -0.040690     -0.005218     -0.057740
O	      8.50105      6.52011      8.26745         0.002846      0.145490      0.051713
O	      2.10185      6.48261      6.34858         0.020954      0.023126      0.064204
O	      4.18430      8.45476      6.22824        -0.037725     -0.037149      0.002050
O	      4.15811      6.31606      8.18044        -0.008253     -0.049947     -0.062908
O	      6.36837      8.49727      8.28366         0.020795     -0.008389     -0.003878
O	      6.39961      6.15126     10.36037         0.025467     -0.020483     -0.006675
O	      8.48039      8.31310     10.37420        -0.039448      0.013346      0.044672
