# total energy = -251.35028398 eV
 
CRYSTAL
PRIMVEC
-0.022486 6.309464 6.286240 
6.285288 -0.023351 6.287081 
4.175151 4.191937 -0.000598 
PRIMCOORD
36 1
Li	      6.27218      6.29920     12.50603        -0.007005     -0.009135      0.003251
Li	      6.25208      2.09872      4.22876        -0.008656      0.027706     -0.042514
Li	      6.25718      6.22470      4.35183         0.022749     -0.035942     -0.039584
Li	      4.20568      4.20750      4.36130         0.007712     -0.021816     -0.018557
Li	      4.11442      2.18680      6.24117        -0.007270      0.010217     -0.005019
Li	      0.00461      4.20849      4.19630         0.046909      0.026477     -0.042079
Li	      4.28313      6.17585      6.25169        -0.017452      0.021615      0.025705
Li	      4.19633      4.21205      8.25561        -0.006645     -0.008432      0.004347
Li	      6.25337      6.24007      8.27022        -0.009155     -0.004323     -0.007349
Ti	      6.25484      4.17778      2.12891         0.016773     -0.078763      0.247117
Ti	      4.31472      0.02987      4.29177         0.033063      0.152512     -0.080613
Ti	      8.40908      6.41950     10.54058         0.095702      0.026341     -0.062209
Ti	      4.15675      8.43188      8.32373         0.058267     -0.074748     -0.068218
Ti	      6.29932      2.07249      8.30065        -0.026386      0.086099     -0.208288
Ti	      8.33385      4.16897      8.40649        -0.137969      0.014494      0.151823
Mn	      2.16532      4.06060      6.22980        -0.071086      0.021044     -0.026448
Cu	      8.35168      8.40066     12.36884        -0.020253      0.065857     -0.131380
Cu	      6.12117      4.29924      6.24507         0.008817     -0.046030      0.005180
O	      2.07215      2.11451      2.27834        -0.003572     -0.029280      0.099270
O	      4.17628      4.18830      2.12882         0.005793     -0.010871     -0.030436
O	      4.21341      1.91884      4.10926        -0.013295     -0.156445      0.006573
O	      6.39413      4.14501      4.00911        -0.010865      0.000553     -0.204055
O	      6.24576      2.07064      6.47046         0.034260     -0.101403      0.155209
O	      8.39591      4.21281      6.27523         0.084817      0.013750      0.033194
O	      2.07403      4.34581      4.04190         0.024420      0.050100     -0.045535
O	      3.99521      6.32517      4.12176        -0.140074     -0.005270     -0.007026
O	      4.14862      4.16716      6.27459         0.029657      0.041829      0.070981
O	      6.24853      6.28770      6.26673         0.033637     -0.082645      0.061308
O	      6.40591      4.07474      8.44304         0.080575     -0.054278      0.027972
O	      8.39534      6.20081      8.49931         0.087658     -0.069236     -0.004610
O	      2.04899      6.24135      6.25921        -0.022595      0.020648      0.051326
O	      4.17801      8.37354      6.47653        -0.059632      0.079059      0.057622
O	      4.09952      6.37287      8.48127        -0.056550      0.056594     -0.005352
O	      6.14830      8.51203      8.39682        -0.032651      0.070837      0.039592
O	      6.19713      6.27111     10.50542        -0.042942      0.009869     -0.013913
O	      8.33292      8.34160     10.34813         0.023247     -0.006984      0.002716
