# total energy = -256.20872861 eV
 
CRYSTAL
PRIMVEC
0.006702 6.318715 6.280514 
6.338437 0.003053 6.284469 
4.227813 4.217112 -0.000088 
PRIMCOORD
36 1
Li	      4.38578      8.43325      8.36412         0.012961      0.089823      0.103927
Li	      6.39438      8.34054     10.32371        -0.077527      0.062306      0.008268
Li	      4.16410      6.34254      2.18482         0.002472     -0.105699      0.193783
Li	      8.43110      4.29609      8.42148         0.121726     -0.003250      0.156138
Li	      6.37122      4.25729     10.36125         0.134018     -0.035545     -0.065360
Li	      8.38844      6.30109     10.35283         0.063078     -0.203326     -0.017027
Li	      6.34123      8.39845      6.39385         0.064895     -0.022346     -0.047226
Li	      8.34834      8.35757      8.44791        -0.031422      0.006350      0.007093
Li	      6.40529      6.46356      8.44697        -0.031798      0.084662      0.018882
Ti	      0.05547      6.31286      6.28986         0.037808     -0.063311      0.661116
Ti	      8.46707      8.39978     12.49584        -0.116514      0.143141     -0.110049
Ti	      6.30226      4.19872      6.44174        -0.083712      0.039444     -0.106948
Ti	      4.20021      6.36978      6.33300        -0.013398     -0.334061     -0.277324
Ti	      2.10609      2.23361      4.04952         0.063836      0.494328     -0.262352
Ti	      8.49700      6.38075      6.41711        -0.100308      0.336770     -0.112791
Mn	      4.28385      6.29469     10.29297        -0.160067      0.118512     -0.090652
Fe	      6.32336     10.35810      8.39276        -0.020901      0.282266      0.219490
Co	      4.21748      4.21556      4.05077        -0.210025     -0.029600      0.136849
O	      2.09360      2.01576      2.13546         0.003566      0.054329     -0.255427
O	      4.18223      4.24854      1.97149         0.018255     -0.054878     -0.950147
O	      4.09351      2.10123      4.31819         0.063443     -0.381632      0.200247
O	      6.31730      4.32623      4.30379         0.538956      0.007529      0.358916
O	      6.33210      2.12371      6.29133        -0.069204      0.012607      0.022901
O	      8.44389      4.22323      6.32774         0.033019     -0.010487      0.081885
O	      2.13751      4.09330      4.15335        -0.519170     -0.342770     -0.003265
O	      4.36469      6.33795      4.29987         0.045526      0.384761      0.293448
O	      4.25858      4.22205      6.24508         0.205699     -0.080800      0.568309
O	      6.34959      6.28082      6.20670        -0.036577     -0.080052      0.224126
O	      6.32744      4.22077      8.24805         0.004282      0.015670     -0.403604
O	      8.44627      6.34105      8.23748        -0.038182      0.004512     -0.419325
O	      2.14176      6.33210      6.23066         0.095802      0.211505     -0.103695
O	      4.17181      8.43506      6.31567        -0.244126     -0.145886     -0.034761
O	      4.27987      6.32955      8.20409         0.136588      0.003566     -0.310616
O	      6.35178      8.44761      8.41583         0.089388     -0.385506     -0.106758
O	      6.35294      6.31602     10.67251         0.028491      0.009143      0.049243
O	      8.45805      8.41841     10.65628        -0.010878     -0.082078      0.372705
