# total energy = -254.86301730 eV
 
CRYSTAL
PRIMVEC
0.013046 6.332716 6.267713 
6.289494 0.025294 6.255359 
4.209195 4.229802 0.000718 
PRIMCOORD
36 1
Li	      8.49164      8.51311     12.43330         0.082056      0.014322     -0.039263
Li	      4.21446      8.39505      8.35834        -0.018503     -0.068034      0.010002
Li	      4.23077      6.33220     10.42102         0.034713      0.032185     -0.028650
Li	      6.29236      6.29587      4.23132        -0.048699     -0.057095      0.034410
Li	      4.24349      4.24450      4.20886         0.010742      0.007371      0.002239
Li	      6.29328      4.30786      6.16842         0.001036      0.053235     -0.068665
Li	     10.44689      8.49604     10.50326        -0.051982      0.010284      0.022226
Li	      4.24418      6.35516      6.24967        -0.005682      0.023907     -0.000921
Li	      6.22150      6.35784      8.36316        -0.057104      0.006870      0.000471
Ti	      2.08016      0.09429      2.12665         0.166699      0.046463      0.071061
Ti	      6.24394      2.13381      4.19578        -0.339423     -0.010057     -0.033130
Ti	      0.06267      2.14992      2.13227         0.028008      0.000958      0.355306
Ti	      2.02799      4.10851      2.10900         0.001983     -0.042998     -0.138937
Ti	      6.21669      8.38221      6.14888        -0.297079     -0.322558      0.044336
Ti	      4.28761      4.27109      8.34319         0.063580      0.145863     -0.010648
Mn	      8.34209      6.30996      6.18575        -0.096224     -0.046739     -0.112721
Fe	      2.13737      6.32377      4.24323         0.064034      0.019580      0.006843
Ni	     10.48177     10.56234     12.51805         0.012180     -0.053844     -0.058186
O	      2.14577      2.09193      2.12017        -0.099531      0.011090     -0.020974
O	      4.20059      4.29146      2.07837         0.029694     -0.030805      0.075601
O	      4.36343      2.10296      4.10815         0.358979      0.009751      0.036104
O	      6.30317      4.16933      4.09682         0.016031     -0.053602     -0.069940
O	      6.34486      2.13745      6.23014         0.045101      0.052574      0.059027
O	      8.40892      4.19084      6.43180        -0.069211     -0.004457      0.207516
O	      2.10652      4.17854      4.19699        -0.023593     -0.065371      0.013354
O	      4.17687      6.34654      4.02643         0.156763      0.028754     -0.268245
O	      4.09800      4.25948      6.36277         0.003174      0.017783      0.096320
O	      6.25235      6.49605      6.26342        -0.039202      0.255267      0.007525
O	      6.28795      4.27894      8.33328         0.022799     -0.041461     -0.000573
O	      8.45405      6.34512      8.34741        -0.028436      0.057130     -0.082298
O	      2.08576      6.25720      6.38321         0.061662      0.040817      0.106831
O	      4.32715      8.48992      6.25592         0.308550     -0.058952      0.025080
O	      4.09984      6.23273      8.35510        -0.076226     -0.138820     -0.023178
O	      6.38760      8.54014      8.36946        -0.018216     -0.070930     -0.002894
O	      6.37131      6.49047     10.45862        -0.150885      0.135402     -0.080996
O	      8.35587      8.49560     10.33811        -0.047788      0.096118     -0.134033
