# total energy = -258.02777403 eV
 
CRYSTAL
PRIMVEC
-0.078094 6.422906 6.349553 
6.280130 -0.008193 6.280074 
4.204061 4.252569 -0.022773 
PRIMCOORD
36 1
Li	      6.26231      6.45460     12.54650         0.009718     -0.012972     -0.005866
Li	      8.28644      8.46572     12.52392         0.021470     -0.046211      0.018909
Li	      6.23858     10.58611      8.37975         0.005991     -0.012510      0.022399
Li	      6.29254      8.41651     10.52826        -0.048618      0.003333      0.030220
Li	      8.39068      6.36509      6.28997         0.016560      0.020451     -0.035395
Li	     10.36643      8.59181     10.52237         0.010098      0.052931     -0.004022
Li	      8.18636      6.56231     10.50842        -0.001089     -0.003920     -0.010583
Li	      8.28866      8.52022      8.47385         0.055714      0.028167      0.029782
Li	      6.28475      6.43433      8.50562        -0.031165     -0.008850      0.075914
Ti	      8.42027     10.50761     10.48531         0.302877     -0.114677     -0.132902
Ti	      8.28120      4.37254      8.27436        -0.088156      0.137987     -0.022586
Ti	      2.06249      2.14401      4.20388         0.050102     -0.013135     -0.079922
Ti	      4.21049      4.27211      4.24955         0.015329     -0.011424     -0.091831
Ti	      6.24684      4.12102      6.29976         0.061864     -0.297095      0.014755
Ti	      2.05549      4.38510      6.37529        -0.292286      0.180469      0.105683
Mn	      4.16618      8.52361      8.38380        -0.073767      0.054403      0.025733
Fe	     10.39585      6.40296      8.33644         0.013685     -0.023724      0.064225
Fe	      4.11787      6.43722      6.40438         0.020869      0.090890     -0.004060
O	      2.01893      2.26642      2.19336         0.054446      0.048662      0.148057
O	      4.09195      4.24055      2.18783        -0.080812      0.010214      0.082009
O	      4.09861      2.18360      4.24293        -0.006112     -0.022692      0.029712
O	      6.30728      4.34122      4.20037         0.031820     -0.033736     -0.002715
O	      6.28930      2.26285      6.24804         0.005415      0.355207     -0.042933
O	      8.33738      4.28308      6.28624        -0.039721      0.016936      0.037856
O	      2.09176      4.18566      4.19315         0.068803     -0.102838      0.073091
O	      4.22833      6.27661      4.21580         0.044153     -0.018102      0.021128
O	      4.15005      4.21700      6.31029        -0.038685     -0.005048     -0.001992
O	      6.22402      6.38700      6.17762         0.098250     -0.024319     -0.158445
O	      6.29854      4.31724      8.33641         0.094874      0.016053     -0.081761
O	      8.36685      6.24147      8.43247        -0.182932     -0.224068     -0.045831
O	      2.08962      6.28835      6.29931        -0.083250     -0.228559      0.055987
O	      4.31771      8.53806      6.25426         0.229984      0.044180      0.008490
O	      4.07914      6.41823      8.59351         0.028931     -0.062991      0.157297
O	      6.29320      8.49871      8.22640         0.059605      0.027652     -0.184389
O	      6.06388      6.45620     10.55342        -0.305413     -0.067682     -0.070999
O	      8.32197      8.66892     10.53522        -0.028555      0.247018     -0.025016
