# total energy = -251.33776170 eV
 
CRYSTAL
PRIMVEC
-0.041573 6.344537 6.388128 
6.288042 0.024382 6.322199 
4.195459 4.189442 0.012986 
PRIMCOORD
36 1
Li	      8.31488      2.23487      6.37800         0.005208      0.032083     -0.029964
Li	      4.18137      2.11223      2.15303         0.021634     -0.029876     -0.014545
Li	      8.35667      4.26088      4.27660        -0.012353      0.005585      0.039138
Li	      6.23960      2.13355      4.25434        -0.011200     -0.006893      0.004861
Li	      6.35914      2.14579      8.35174         0.038148      0.021382     -0.002867
Li	      2.07689      4.08904      2.05807        -0.042571     -0.079080      0.014842
Li	      2.15541      2.07449      4.19156         0.012175      0.001273      0.005118
Li	      6.38726      4.15684      6.31228         0.028529     -0.006898     -0.046561
Li	      6.22176      6.37109      8.49557        -0.028549      0.037056      0.048542
Ti	      2.06887      0.15726      2.22334        -0.025478      0.130166      0.096494
Ti	      6.26818      4.27073     10.54330        -0.000137      0.030653     -0.081091
Ti	      8.32223      6.41961     10.45662        -0.045310      0.045961     -0.089908
Ti	      4.27079      2.02625      6.32328         0.093939     -0.009652      0.021693
Ti	      4.26599      6.28795      6.44203         0.062521     -0.031600      0.047537
Ti	      8.34246      8.42990      8.47751        -0.044533      0.004703      0.042302
Mn	      4.14067      4.17291      4.16370        -0.106763      0.024414     -0.023301
Ni	     10.45616      4.21405      6.35716         0.031082     -0.043665     -0.058463
Ni	      6.23412      8.40901      6.39917         0.009629      0.020613     -0.022034
O	      2.10420      1.99677      2.09913         0.009506     -0.172729      0.016227
O	      4.34002      4.15364      2.04191         0.141359      0.004113      0.066843
O	      4.15089      2.09729      4.42337         0.001948     -0.071259      0.155879
O	      6.28977      4.20980      4.07901         0.055482      0.020129     -0.132160
O	      6.14340      2.12269      6.36163        -0.179810      0.049163     -0.003033
O	      8.37333      4.31769      6.38751        -0.022843      0.144020     -0.011682
O	      1.98840      4.29895      4.26665        -0.066688     -0.029655     -0.093358
O	      4.08986      6.38576      4.34417        -0.012901      0.055175      0.023938
O	      4.16501      4.22951      6.37631         0.109089     -0.028976     -0.025889
O	      6.19771      6.34324      6.40979        -0.057491     -0.185848      0.002641
O	      6.13525      4.24293      8.60337        -0.006995     -0.017153      0.038895
O	      8.34821      6.33324      8.49120         0.000031     -0.048686      0.046004
O	      2.15922      6.29434      6.35147         0.037955      0.089823     -0.013587
O	      4.17948      8.36474      6.28947        -0.095280     -0.022345     -0.038477
O	      4.09011      6.34553      8.43565        -0.057728      0.045723     -0.028046
O	      6.38848      8.52214      8.45265         0.094844      0.027554      0.091725
O	      6.34138      6.30493     10.65128         0.034157     -0.007987     -0.064397
O	      8.41058      8.44128     10.57128         0.029393      0.002713      0.016684
