# total energy = -244.52093984 eV
 
CRYSTAL
PRIMVEC
-0.006383 6.351149 6.233362 
6.260767 0.008355 6.218437 
4.172626 4.223075 0.006952 
PRIMCOORD
36 1
Li	      2.05152      2.09929      0.09746        -0.024078     -0.001145     -0.000630
Li	      2.12012      6.35626      8.26523         0.029329     -0.028051     -0.054417
Li	      8.27731      4.25041      8.29818        -0.030638      0.019740     -0.005818
Li	      6.22670      6.34382      4.33782        -0.026970     -0.010784     -0.021389
Li	      6.12341      4.42384      6.29976         0.027629     -0.034822      0.011578
Li	      6.37924      8.29079      6.25603        -0.011528     -0.001172      0.013226
Li	      4.36946      6.18385      6.27487        -0.003678      0.007471     -0.005407
Li	      4.18752      4.25974      8.06055        -0.002035      0.018907      0.015507
Li	      6.23577      6.33217      8.08119        -0.012808      0.017799      0.101383
Ti	      4.21509      4.18645      0.10400         0.108225     -0.009769      0.035776
Ti	      4.05298      2.10223      2.02161        -0.224697     -0.088102     -0.134207
Ti	      8.37066      6.39755     10.28821         0.021720      0.032957     -0.022065
Ti	      8.25011      4.15625      4.13658        -0.063024     -0.121299     -0.017345
Ti	      6.32872      8.50032     10.32820         0.135858      0.013869     -0.161897
Ti	      6.28418      4.23702     10.32543         0.016707     -0.023342     -0.221743
Ni	      0.07771      2.14113      2.04856         0.065624      0.065649     -0.050646
Ni	      4.16753      4.26102      4.24682        -0.032336      0.037931     -0.178536
Ni	      8.23947      6.42755      6.30682         0.158449     -0.073843      0.017377
O	      2.18293      2.12862      2.07216         0.266138     -0.005166      0.047328
O	      4.18393      4.20764      2.07712         0.003696     -0.134560     -0.136575
O	      4.24628      2.05785      4.09241        -0.031220     -0.077014     -0.092179
O	      6.28383      4.13486      4.17846         0.122003     -0.035222     -0.025749
O	      6.23408      2.01023      6.16466         0.067412     -0.088830     -0.081526
O	      8.47818      4.24064      6.08523         0.075100     -0.082680     -0.089554
O	      2.00721      4.37798      4.15837        -0.121984      0.041030     -0.023412
O	      4.12747      6.37490      4.14433        -0.039777      0.153853      0.118933
O	      4.16407      4.20756      6.18727         0.046490      0.083479      0.178162
O	      6.29213      6.33594      6.22857        -0.169304     -0.023177      0.008053
O	      6.25998      4.19072      8.46122        -0.013627      0.128538      0.231648
O	      8.39521      6.38176      8.40399        -0.062592     -0.010365      0.190309
O	      1.92389      6.39431      6.08639        -0.197477      0.028413     -0.009896
O	      4.13149      8.49835      6.24023        -0.000698      0.059325      0.054957
O	      4.15714      6.44829      8.42928        -0.011815      0.080773      0.134280
O	      6.13858      8.48163      8.45259        -0.026448     -0.000647      0.172392
O	      6.25097      6.34724     10.40532        -0.004760      0.005087     -0.006131
O	      8.36400      8.47858     10.38273        -0.032886      0.055170      0.008211
