# total energy = -195.67885847 eV
 
CRYSTAL
PRIMVEC
0.001572 6.268750 6.202750 
6.164946 0.042860 6.161446 
4.127436 4.169178 0.011054 
PRIMCOORD
36 1
Li	      2.10660      2.13107      0.07686         0.001212      0.032593     -0.029277
Li	      4.04904      2.09733      2.02417        -0.011813      0.006205     -0.016301
Li	      2.07974      4.12184      2.08703         0.028275     -0.030593      0.013896
Li	      6.16080      6.35152      4.23151        -0.026486      0.075211      0.064728
Li	      4.04391      4.17972      4.21625        -0.015814     -0.057735      0.101316
Li	      8.17824      6.27933      6.16672        -0.016738      0.052721     -0.038412
Li	      6.17854      4.28019      6.17595        -0.045209      0.047419     -0.029484
Li	      2.03780      4.10624      6.07690         0.070327     -0.037385     -0.058101
Li	      4.21490      6.26238      6.13998         0.030804     -0.110067      0.094645
Mn	      4.09923      4.13995      0.01328        -0.077820     -0.012591     -0.049449
Mn	      2.06326      6.30057      8.22682        -0.004001     -0.137038      0.016075
Co	      6.14011      2.12686      4.15007        -0.040433      0.086205     -0.192702
Co	      4.10938      4.21093      8.17530        -0.125254      0.125866     -0.049345
Cu	      4.12592      6.27289      2.09893         0.003072      0.143983      0.199830
Ni	      8.19842      4.23923      4.16656        -0.024265     -0.018679      0.028961
Ni	      4.19185      8.28784      4.19887        -0.045956      0.076335     -0.028092
Ni	      2.12040      6.22337      4.16094        -0.063635     -0.011193      0.170969
Ni	      6.19155      6.28655      8.12772        -0.033424      0.043265      0.059798
O	      6.17916      6.26865      6.21352         0.007839      0.010302     -0.057027
O	      1.98689      1.90502      2.11360         0.039122     -0.068519     -0.020681
O	      4.23238      4.19667      1.91725        -0.033014     -0.009500      0.012057
O	      4.32516      2.07852      4.05050         0.167883      0.077316     -0.049013
O	      6.16590      4.04201      4.00386        -0.082000     -0.130960     -0.028647
O	      6.20494      2.01217      6.02356         0.071432     -0.068831     -0.045572
O	      8.38024      4.20327      6.19299         0.083221     -0.003033      0.124280
O	      2.04210      4.26384      4.06827         0.086976     -0.195674     -0.057273
O	      4.07002      6.29708      4.14788         0.286030     -0.140555     -0.286113
O	      4.10937      4.20418      6.40470        -0.007007     -0.006828      0.179748
O	      5.98455      4.24125      8.31204         0.148263     -0.172849     -0.235867
O	      8.27228      6.45266      8.26316         0.047694      0.377189     -0.085408
O	      1.95050      6.27049      6.30105         0.018365      0.040657      0.091049
O	      4.11702      8.52866      6.18022        -0.012617      0.067293      0.210523
O	      4.02548      6.19765      8.26203        -0.094359     -0.277717     -0.041719
O	      6.32094      8.41537      8.36512        -0.173036      0.070928      0.096517
O	      6.19506      6.39276     10.36284        -0.063475      0.146484     -0.009556
O	      8.13262      8.37378     10.18476        -0.094158      0.009776     -0.056353
