# total energy = -92.91275987 eV
 
CRYSTAL
PRIMVEC
1.979587 4.101243 2.015720 
4.087415 -4.166296 0.001522 
4.071866 -0.014079 -4.116233 
PRIMCOORD
16 1
Li	      4.01876      4.01638     -0.05810        -0.102937      0.145373      0.199230
Li	      4.02238      1.95095      1.93040        -0.034528      0.169206      0.143982
Li	      3.98788      0.02322     -0.00101        -0.063700     -0.152925     -0.030011
Li	      4.01972     -2.00039     -2.01336         0.019941     -0.126125     -0.022344
Mn	     10.00982     -0.07653     -2.07716         1.089011      0.042733     -0.493776
Mn	      2.02089      2.02661     -0.04806        -0.862741      0.214656      0.235810
Ni	      3.97569      2.00960     -2.03679        -0.213580      0.177451     -0.357743
Ni	      6.06356     -0.03027     -2.01923         0.202012      0.190393     -0.097298
O	      5.99173     -0.20009      0.03961         0.075525     -0.005950      0.443146
O	      6.03601     -2.02586     -1.90240         0.057561     -0.490634     -0.336830
O	      3.85563      1.98932     -0.04228         0.431854      0.138196      0.406415
O	      4.06560     -0.00824     -2.19963        -0.526170     -0.255410     -0.026976
O	      8.12598     -0.08800     -2.07186         0.224981      0.168627      0.024713
O	      4.10042     -2.23613     -0.01932        -0.198254     -0.266843      0.027509
O	      6.02129      2.09056     -2.16665         0.321126      0.309775     -0.004819
O	      1.91254      0.11437      0.02732        -0.420101     -0.258525     -0.111008
