# total energy = -195.56440377 eV
 
CRYSTAL
PRIMVEC
0.019467 5.967729 6.433443 
6.111693 -0.000869 6.455558 
4.069397 3.986606 0.005481 
PRIMCOORD
36 1
Li	      4.08844      3.92282      0.12007        -0.016507      0.004072      0.055100
Li	      2.16253      8.03931      6.43743        -0.016940      0.008955      0.002916
Li	      4.06900      7.98208      8.40396        -0.049977      0.002312     -0.053493
Li	      2.04115      3.92807      2.10881         0.012800      0.002097     -0.102319
Li	      4.05717      4.02705      4.27640        -0.020130     -0.020778      0.001276
Li	      6.14126      3.96664      6.48943        -0.048474     -0.000830      0.064260
Li	      4.09358      7.95997      4.40686         0.047342      0.019302      0.024239
Li	      4.04913      5.96736      6.43784         0.021739     -0.049240      0.084064
Li	      4.10091      3.96503      8.58724         0.027933      0.000506     -0.039299
Mn	      8.16155      5.96115      6.47589        -0.085441      0.173381     -0.006711
Mn	      6.06650      5.90952      8.60500         0.083666      0.024640     -0.072675
Co	      4.12372      5.95312     10.74990         0.173587      0.003983     -0.016990
Co	      6.10723      1.99182      8.57940        -0.069299      0.038571     -0.055969
Cu	      6.12414      2.04749      4.34182        -0.138996     -0.057883     -0.005862
Cu	      2.01908      2.04760      4.22543         0.100833      0.006023     -0.035485
Cu	      2.11819      5.98552      4.41705         0.069187     -0.112862      0.071255
Ni	      2.06287      5.96552      8.55356         0.011128     -0.038027     -0.052858
Ni	      6.08520      7.94666      6.46998         0.276238     -0.196868      0.030025
O	      2.07708      5.79882      6.52555        -0.017617      0.301188     -0.216623
O	      4.23459      7.92135      6.44537        -0.365079      0.008807     -0.054894
O	      8.05527      7.97306     10.81788         0.039945      0.172329     -0.039097
O	      1.88833      1.99301      2.04532         0.044066      0.078820      0.163186
O	      4.08362      4.14596      2.16490        -0.081240     -0.044367      0.009144
O	      4.10364      1.91667      4.47616         0.109340      0.200610     -0.062542
O	      6.25794      4.01979      4.20847        -0.136680     -0.093559      0.146860
O	      5.97307      2.02365      6.67213         0.090019     -0.064539     -0.099816
O	      8.16302      4.07816      6.25109        -0.001906     -0.146696     -0.054400
O	      2.05579      3.99478      4.56488        -0.027218      0.068626     -0.368346
O	      4.09935      6.00561      4.01204        -0.080092      0.044398      0.060862
O	      3.95567      3.88725      6.44335         0.122945     -0.137076     -0.057161
O	      6.16133      6.01393      6.60730         0.023286     -0.142051     -0.053659
O	      6.12451      3.99522      8.57137        -0.009343     -0.053401      0.042421
O	      8.11792      5.91907      8.41957        -0.013576      0.033308      0.073277
O	      4.15807      5.96932      8.78767         0.005263     -0.005714      0.111840
O	      6.09751      7.87947      8.38112         0.013317     -0.071804      0.376098
O	      6.09300      6.03669     10.54000        -0.094118      0.043769      0.131377
