# total energy = -195.79849568 eV
 
CRYSTAL
PRIMVEC
0.020227 6.175565 6.232562 
6.175680 0.019579 6.233001 
4.144238 4.144568 -0.014089 
PRIMCOORD
36 1
Li	      6.11361      0.06819      6.18199        -0.020577     -0.093270     -0.084379
Li	      8.21178      2.15391      6.21985         0.106333     -0.037155     -0.060534
Li	      4.17953      8.27872      8.28072         0.066040     -0.069503     -0.026548
Li	      6.18050      1.99594      4.23060         0.016931     -0.017626     -0.081146
Li	      8.25619      4.21373      8.22147         0.060678     -0.031439     -0.085933
Li	      8.36632      6.12663      6.27355        -0.091681     -0.114854     -0.048010
Li	      6.15963      4.22099     10.38188        -0.100946      0.136068      0.116489
Li	      8.15714      6.22912     10.34280        -0.144272      0.052042      0.172399
Li	      6.27180      6.19269      8.41490        -0.098819      0.137281      0.070730
Mn	      2.07361      2.07545      4.12034         0.521900     -0.148997      0.151328
Mn	      4.11369      6.24199      6.23082        -0.357057      0.162155      0.204010
Co	      4.19959      6.15664     10.41696         0.135429     -0.081236      0.156584
Co	      6.16973      2.08788      8.30717         0.109030      0.127358     -0.409002
Cu	      6.21920     10.30521      8.27565        -0.062896     -0.061600     -0.425963
Cu	      4.12800      4.12197      4.09821        -0.195976     -0.198915      0.433558
Cu	      6.17801      8.27436      6.20093        -0.124582      0.136946      0.261057
Cu	      8.28848      8.23244      8.35576        -0.307401      0.298068      0.034659
Ni	      6.24334      4.06662      6.27220         0.243034      0.524662     -0.528037
O	      8.39550      6.28184      8.34984         0.154962     -0.262652     -0.079725
O	      6.28868      8.33171      8.18974         0.124819     -0.167269     -0.069778
O	      6.01652      6.22762     10.38133         0.242105      0.014010      0.000961
O	      8.23496      8.45979     10.33164        -0.108851     -0.140481      0.107336
O	      1.95746      2.02702      2.19070        -0.097355      0.181646      0.119039
O	      4.18840      4.26923      2.16024        -0.187601      0.399854     -0.045613
O	      3.99984      1.92020      4.13508        -0.213619      0.397959     -0.086160
O	      6.32876      4.25575      4.11783        -0.285041      0.060887      0.874923
O	      6.19499      2.10570      6.39089        -0.057310     -0.382502      1.001022
O	      8.24281      4.13794      6.10078        -0.077894     -0.002703     -0.144793
O	      2.07480      3.96668      4.21678         0.216648     -0.056325     -0.240428
O	      4.28967      6.23348      4.04018        -0.073604     -0.006801     -0.577264
O	      4.13236      4.24418      6.13437         0.167072     -0.087997     -0.233370
O	      6.11857      6.18575      6.09406        -0.168392     -0.206038     -0.196356
O	      6.13479      4.00599      8.28121         0.151683     -0.427021      0.205592
O	      2.15508      6.15762      6.22151         0.464415      0.176799     -0.670243
O	      4.20236      8.12867      6.26996        -0.223984     -0.130425     -0.006108
O	      4.11187      6.11959      8.40063         0.216780     -0.080927      0.189704
