# total energy = -197.56549031 eV
 
CRYSTAL
PRIMVEC
0.021082 6.151800 6.269756 
6.057582 0.015806 6.274761 
4.068582 4.134901 -0.019672 
PRIMCOORD
36 1
Li	     10.05305      4.10789      6.26050         0.129761     -0.055724      0.143063
Li	      8.12662      2.17388      6.23023         0.021648     -0.164661      0.043877
Li	      2.05337      6.14716      8.36147        -0.014378      0.054837     -0.251946
Li	      8.13761      4.13082      4.24648        -0.083470      0.011925      0.103025
Li	      8.09138      4.15266      8.28766         0.023828      0.050022     -0.039374
Li	      8.09339      6.11061      6.32025        -0.103642      0.037288      0.066884
Li	      8.05636      6.19457     10.41844         0.038727     -0.024434      0.195390
Li	      6.08657      8.23515      6.24009         0.007362      0.133491      0.005503
Li	      6.11419      6.15538      8.48844         0.077153     -0.012962     -0.085568
Mn	      6.13589      8.19712     10.45679         0.489599     -0.150567      0.092118
Mn	      6.05593      2.07628      8.34451         0.035275     -0.173390     -0.457892
Co	      2.04060      2.02074      4.13903        -0.448131      0.160579      0.101922
Co	      4.07514      8.25879      4.20449        -0.027451      0.606449      0.520941
Co	      3.99936      6.18325      6.30968         0.755617      0.172521      0.047463
Cu	      4.09172      8.20804      8.30392        -0.147172     -0.120565     -0.237017
Cu	      6.10231      4.14946      6.26130        -0.212422      0.279215     -0.008115
Ni	      4.02077      4.14247      4.11288        -0.247126     -0.038218      0.054778
Ni	      4.04864      4.13617      8.37190        -0.207328     -0.158156     -0.158197
O	      2.27121      6.12611      6.22603        -0.626566     -0.147845      0.139417
O	      4.11116      6.06201      8.26579        -0.084229      0.606462     -0.574656
O	      2.01279      2.06554      2.21811        -0.042225      0.092519      0.237272
O	      4.02374      4.30878      2.03699        -0.008707     -0.117817      0.016992
O	      4.15552      2.11170      4.06119        -0.853106      0.009215      0.222516
O	      6.03153      4.25860      4.07160         0.080725     -0.236377      0.096439
O	      6.10234      2.22160      6.31841        -0.043319     -0.049177     -0.232430
O	      7.92208      4.17431      6.28635         0.255132      0.013963     -0.063040
O	      1.95070      3.90676      4.23808         0.549450      0.006546     -0.058343
O	      4.02695      6.24364      4.01962         0.985597     -0.265807      0.613489
O	      4.18133      4.21499      6.26976        -0.102293      0.128177     -0.157888
O	      5.93491      6.07887      6.09102         0.349773     -0.214002     -0.306780
O	      6.06149      4.05193      8.59110         0.209649      0.088026     -0.483522
O	      8.23420      6.32443      8.30652        -0.000578     -0.413295      0.063258
O	      4.08946      8.09100      6.22686        -0.117099     -0.197140      0.136960
O	      6.07453      8.19658      8.46891         0.076750     -0.097053      0.186328
O	      6.12066      6.06514     10.56380        -0.133144      0.092088     -0.177340
O	      8.11235      8.26175     10.36873        -0.583660      0.093864      0.204472
