# total energy = -198.35263701 eV
 
CRYSTAL
PRIMVEC
0.025914 6.211764 6.247189 
6.122733 -0.029557 6.304076 
4.038515 4.134775 0.024893 
PRIMCOORD
36 1
Li	      6.05251      0.04732      6.30527         0.068983      0.066610      0.037934
Li	      8.14797      2.08688      6.30321        -0.056081     -0.058615      0.011703
Li	      4.03935      2.10752      2.09311         0.061319      0.020696     -0.005629
Li	      6.11000      2.08266      8.33440         0.002515      0.024794     -0.087490
Li	      8.08408      4.13037      8.35498         0.013489      0.000675      0.006507
Li	      6.18036      4.05633      6.42116        -0.002004     -0.074460      0.090192
Li	      6.14364      4.10851     10.39122        -0.002514     -0.047813     -0.042264
Li	      8.10604      6.15502     10.34843         0.080615     -0.073627     -0.050539
Li	      6.16677      6.05487      8.46854        -0.018616     -0.017970      0.053461
Mn	      6.08330      4.16797      2.17600        -0.174621      0.068897     -0.022438
Mn	      4.10278      6.20525      6.27110        -0.131176      0.091855     -0.051381
Co	      2.05287      2.10112      4.14276         0.047577      0.074848     -0.086487
Co	      4.06406      4.13662      4.17993        -0.070659      0.058243     -0.095107
Co	      4.10146      2.07542      6.29261        -0.013933     -0.137070      0.055137
Cu	      8.22382     10.22877     10.60937         0.237289     -0.292418     -0.016934
Cu	      6.16987      8.13448     10.51628        -0.229587      0.057838      0.128216
Cu	      6.02668      8.28306      6.27516        -0.131223      0.137322     -0.035011
Ni	      8.18305      8.19970      8.44332        -0.037257      0.074522      0.042648
O	      5.98511      4.07987      8.38352         0.344457      0.034833     -0.029960
O	      6.08690      6.20566     10.47845        -0.193801     -0.287936      0.029907
O	      8.09036      8.17893     10.48106         0.241942      0.179630      0.083868
O	      2.06204      1.93101      2.21107         0.036433     -0.030651      0.097929
O	      4.20971      4.10533      2.25338         0.140783      0.023321      0.021457
O	      4.00191      2.22182      4.31019        -0.058577      0.022211      0.032883
O	      6.08857      4.26613      4.12424        -0.014829      0.131228     -0.120173
O	      5.96034      2.07645      6.19562         0.061258      0.085684      0.138128
O	      8.11981      4.32935      6.28947        -0.060323      0.090236      0.049489
O	      2.17359      4.02228      4.04568        -0.040650     -0.091345      0.092500
O	      4.13965      6.07765      4.31408         0.046112      0.032829      0.052328
O	      3.98372      4.16133      6.15067         0.107754      0.052990     -0.060370
O	      6.05556      6.26057      6.12950         0.050221     -0.045368     -0.128154
O	      8.12718      6.28806      8.21039        -0.083098     -0.122949     -0.111131
O	      2.16232      6.17562      6.44118         0.031658     -0.010452      0.131443
O	      4.09910      8.08236      6.27935         0.027987     -0.092772      0.013920
O	      4.06263      6.11516      8.26229         0.022521      0.062599     -0.076876
O	      6.24482      8.39837      8.53640        -0.303962     -0.008413     -0.149709
