# total energy = -198.35897713 eV
 
CRYSTAL
PRIMVEC
-0.009139 6.191855 6.019791 
6.413128 -0.017477 6.028358 
4.265572 4.124083 -0.001981 
PRIMCOORD
36 1
Li	      2.15150      2.08381      0.08746         0.108215      0.009353     -0.009242
Li	      6.25359      4.20041      2.04299        -0.010871     -0.079517     -0.129784
Li	      4.18497      2.07366      2.05760         0.006695     -0.001610     -0.085842
Li	      0.11378      1.96804      1.99242        -0.010336      0.043746      0.026080
Li	      2.13254      4.02754      2.03637         0.013736      0.053526     -0.052822
Li	      4.21119      4.05320      3.93539        -0.001559     -0.014323      0.019545
Li	      4.31323      2.04275      6.02796         0.110594     -0.003117      0.060886
Li	      6.38058      8.21930      6.02759        -0.049406      0.032060      0.065805
Li	      4.28113      4.12829      8.00560        -0.025023     -0.001999     -0.062450
Mn	      4.29313      4.07578      0.07796         0.097485     -0.035301     -0.039091
Mn	      6.47221      2.14393      3.99802         0.104464     -0.222596     -0.069105
Co	     10.64022      8.20752     10.01285        -0.037339      0.000088      0.101839
Co	      4.19359      6.07880      6.06132         0.116672      1.080592      0.051908
Co	      6.47472      6.22286      8.02188        -0.027697      0.053308     -0.005592
Cu	      4.33741      6.26067     10.00337         0.130642     -0.036780     -0.114306
Cu	      6.33755      6.14742      3.98858        -0.097061      0.021166      0.169315
Cu	      6.38362      4.10663      6.07454        -0.133087     -0.313757      0.151871
Cu	      2.11288      6.17366      4.01232        -0.035050     -0.045109      0.020518
O	      6.41905      4.30818      8.03973        -0.023580      0.057524     -0.287598
O	      8.36449      6.19364      8.16592        -0.050338     -0.009656     -0.194699
O	      4.55234      6.25079      8.05530         0.020937     -0.034345     -0.110061
O	      8.57977      8.52554     10.00500         0.025403     -0.241428     -0.004177
O	      2.11615      1.99885      2.16319         0.052874      0.041544     -0.130163
O	      4.24765      4.09705      1.88369        -0.017802     -0.005915      0.183200
O	      4.55132      1.93595      4.02774        -0.039833      0.284269      0.029093
O	      6.34691      4.22512      4.10835        -0.010811      0.008635      0.028803
O	      6.48504      1.97790      5.95389         0.021250      0.171773      0.134523
O	      8.80068      4.12046      5.89526        -0.200487      0.151879      0.141404
O	      1.85231      3.86104      3.99639        -0.056500      0.105297     -0.037799
O	      3.94071      6.36059      4.00609         0.224220     -0.077251      0.016412
O	      4.13504      4.30438      5.96575         0.144422     -0.334292      0.038170
O	      6.27219      6.12372      5.90418        -0.308297     -0.151814     -0.092124
O	      2.06407      6.18822      5.92059         0.170998     -0.074387      0.066036
O	      4.23746      8.25903      5.90717        -0.050374     -0.405857      0.043156
O	      6.47806      8.13513      8.12743         0.032535     -0.022329      0.010663
O	      6.66586      6.00571     10.14384        -0.195691     -0.003378      0.065626
