# total energy = -196.99651164 eV
 
CRYSTAL
PRIMVEC
0.007559 6.011513 6.233459 
6.229570 -0.003494 6.245025 
4.151722 4.013714 -0.000820 
PRIMCOORD
36 1
Li	      4.19277      3.97917      0.08439        -0.060357      0.053693     -0.124737
Li	      6.18539      4.01769      2.07030         0.086231      0.025670      0.067848
Li	      2.04776      3.99810      2.11813         0.006251      0.043955     -0.044017
Li	      4.03604      4.06944      4.08493         0.128899     -0.099479      0.099108
Li	      6.20521      4.03155      6.37017        -0.064733      0.068538     -0.110728
Li	      6.27682      3.97210     10.28363        -0.019680      0.095744      0.051440
Li	      4.12526      5.98834      6.17613         0.045146     -0.041944      0.069543
Li	      4.24990      4.05687      8.23402        -0.016715      0.015176      0.024380
Li	      6.19739      5.92161      8.32687        -0.047804      0.001717      0.048551
Mn	      6.24656      8.05488     10.36590        -0.031448     -0.150629      0.114021
Mn	      8.29335      6.03488      6.30609        -0.029129      0.024123     -0.257238
Co	      2.18102      8.00117      6.26610         0.222653     -0.277987      0.141368
Co	      4.19659      6.00452     10.38190         0.151005      0.109839      0.101458
Co	      6.10403      6.07923      4.13439         0.067179     -0.137588      0.422151
Ni	      2.10035      5.96146      4.10497        -0.163659      0.063129     -0.242591
Ni	      4.15130      2.05826      2.06594        -0.005789     -0.157041      0.261261
Ni	      4.15790      6.00379      2.06644        -0.047732     -0.015650     -0.033018
Ni	      6.21032      8.04605      6.29719         0.059057     -0.027961      0.021060
O	      6.23776      3.87897      8.31389         0.001644      0.104051      0.019626
O	      2.04936      2.00157      2.10047         0.170220      0.081062     -0.538508
O	      4.15638      4.07233      2.09453        -0.015004     -0.281553     -0.064487
O	      4.24367      1.92921      4.25526         0.053405      0.082080      0.036632
O	      6.43897      4.03760      4.18560        -0.332753      0.042295     -0.063995
O	      6.12427      2.02873      6.13709         0.056560     -0.004103     -0.005907
O	      8.33524      4.00110      6.05612        -0.042712     -0.394574      0.553557
O	      2.05857      3.92225      4.20230        -0.010594     -0.256701     -0.123780
O	      4.17065      5.97999      4.07233         0.091890      0.061087      0.105273
O	      4.06983      3.89090      6.22927         0.280388     -0.135886      0.114121
O	      6.36385      6.02407      6.17937         0.130557     -0.245662      0.111269
O	      8.37524      5.97800      8.20660        -0.083352      0.018328     -0.151299
O	      2.09034      6.07403      6.11690         0.019881      0.881097      0.384669
O	      4.17867      7.99219      6.32510        -0.664884      0.011006     -0.110517
O	      4.17917      6.07064      8.56703        -0.008046      0.141880     -0.664537
O	      6.19654      8.05190      8.46588        -0.080073      0.043160     -0.016917
O	      6.16421      6.13171     10.39143         0.207855      0.180694     -0.065175
O	      8.17709      8.07448     10.47003        -0.054361      0.078433     -0.129886
