# total energy = -201.34796377 eV
 
CRYSTAL
PRIMVEC
0.092266 6.211782 6.210268 
6.185665 0.045087 6.257274 
4.134805 4.183968 0.018833 
PRIMCOORD
36 1
Li	      2.02576      0.04135      2.05426         0.005179     -0.020923      0.101654
Li	      4.13374      2.11123      2.11421         0.020243     -0.025839      0.075291
Li	      2.15679      4.13623      2.24535        -0.035816      0.006561     -0.120004
Li	      2.12445      2.18950      4.14091         0.037462     -0.140287      0.130288
Li	      4.00860      4.19441      4.07664         0.207719     -0.063593     -0.058475
Li	      8.17933      6.32212      6.22109         0.049163     -0.105514     -0.005929
Li	      2.20473      6.06196      4.14909        -0.042340      0.019135     -0.059666
Li	      2.12755      4.11608      6.13883         0.082869     -0.128961      0.112124
Li	      6.27350      6.31043      8.27423        -0.006684     -0.030297     -0.040477
Mn	      4.11908      0.06220      4.19520        -0.540730      0.103773      0.333224
Mn	      8.29969      8.34370      8.33780         0.077775      0.034534      0.045368
Co	      4.33940     10.33677      6.30323        -0.559781      0.377534     -0.017973
Co	      8.24083      2.14461      6.28163        -0.367330      0.293649      0.077519
Co	      0.03599      2.06359      2.06382         0.037704      0.098230     -0.491886
Co	      6.21282      4.24630      6.26070         0.308541     -0.908592      0.329873
Cu	      4.15290      6.26049      6.22963         0.594020     -0.311898      0.026330
Ni	      6.24680      8.30912     10.36651        -0.072153      0.198484      0.099811
Ni	      0.18344      4.08312      4.17484        -0.192781      0.171992     -0.422694
O	      6.13950      6.06154      6.27498        -0.727217      1.149437     -0.011839
O	      1.92089      2.11702      1.89677        -0.106622      0.075694     -0.129612
O	      4.12960      4.35477      2.00333         0.184297     -0.064764     -0.477439
O	      4.15542      1.94138      4.16156        -0.106736     -0.093654     -0.004797
O	      6.30312      4.14345      4.38805         0.173835      0.139087     -0.694420
O	      6.30273      2.29476      6.30020         0.172584     -0.952073      0.175580
O	      8.16351      4.13070      6.18007         0.514247     -0.219608     -0.051596
O	      2.10826      4.14152      4.19789         0.025749      0.130226     -0.022882
O	      4.21911      6.26460      3.89280        -0.056575      0.062401      0.183894
O	      4.27842      4.25614      6.39786        -0.397048      0.405876     -0.083210
O	      6.15111      4.11126      8.20974        -0.123660     -0.167883      0.590665
O	      8.44455      6.43614      8.28263         0.163813      0.191209     -0.012768
O	      2.17444      6.41236      6.18733         0.095890      0.029708      0.059123
O	      4.07010      8.23968      6.24401         0.056572      0.026015      0.094195
O	      4.20568      6.11439      8.52180        -0.047562     -0.033611     -0.053238
O	      6.43255      8.30891      8.33119         0.086091      0.054686     -0.118301
O	      6.14185      6.24394     10.51797         0.320615     -0.284876      0.379246
O	      8.35720      8.45137     10.38552         0.168666     -0.015859      0.063021
