# total energy = -93.04631679 eV
 
CRYSTAL
PRIMVEC
1.989585 4.121956 2.025900 
4.108058 -4.187338 0.001530 
4.092431 -0.014150 -4.137022 
PRIMCOORD
16 1
Li	      4.05945      4.05706     -0.05868        -0.047203      0.072932      0.106333
Li	      4.06311      1.97070      1.94994        -0.013573      0.078635      0.066880
Li	      4.02826      0.02346     -0.00102        -0.031343     -0.066007     -0.017113
Li	      4.06043     -2.02065     -2.03375         0.010892     -0.051253     -0.003160
Mn	     10.11119     -0.07730     -2.09820         0.536768      0.025739     -0.243287
Mn	      2.04136      2.04713     -0.04855        -0.401711      0.089001      0.079658
Ni	      4.01595      2.02995     -2.05742        -0.107216      0.073228     -0.175721
Ni	      6.12496     -0.03058     -2.03967         0.119232      0.114843     -0.028648
O	      6.05240     -0.20212      0.04001         0.034968     -0.015904      0.271359
O	      6.09713     -2.04638     -1.92167        -0.031390     -0.297056     -0.125650
O	      3.89467      2.00947     -0.04271         0.169291      0.069305      0.264040
O	      4.10677     -0.00833     -2.22191        -0.310325     -0.177602     -0.041961
O	      8.20827     -0.08889     -2.09284         0.183819      0.137914      0.009147
O	      4.14194     -2.25877     -0.01952        -0.079708     -0.139261     -0.044832
O	      6.08226      2.11173     -2.18859         0.206105      0.193375     -0.015104
O	      1.93191      0.11553      0.02760        -0.238606     -0.107888     -0.101941
