# total energy = -200.75364624 eV
 
CRYSTAL
PRIMVEC
-0.091167 6.265039 6.109445 
6.257356 -0.001535 6.019652 
4.165871 4.111689 0.004851 
PRIMCOORD
36 1
Li	     10.31101      4.18494      6.03592        -0.015858      0.010626     -0.026466
Li	      8.22045      2.19993      6.01571        -0.033486     -0.024108     -0.028929
Li	      8.28504      4.17905      4.16296        -0.025713     -0.019305     -0.035278
Li	      0.00568      2.03148      2.01306         0.007142     -0.016271      0.002791
Li	      6.23978      6.14445      4.09234        -0.031466     -0.035180      0.008676
Li	      4.16343      4.12313      4.04805        -0.021488      0.019168      0.041324
Li	      4.17182      2.01584      5.99947        -0.028071      0.032599      0.014525
Li	      6.35740      4.06677      6.01686         0.015849      0.018597      0.035525
Li	      4.12637      6.20153      5.98594         0.034896     -0.013643     -0.020050
Mn	      6.17387      4.14603      1.99942        -0.031930     -0.023739     -0.011343
Mn	      6.18360      6.22766      8.08250         0.081482     -0.025707     -0.047789
Co	      4.12593      8.28682      4.09890         0.043123     -0.035399      0.000749
Co	      2.06004      6.26283      4.09743         0.042760      0.091857      0.066923
Co	      2.01215      4.16785      6.05656         0.057091     -0.161378      0.008654
Co	      4.13469      4.19075      8.05877         0.118052     -0.182254      0.121921
Cu	      2.14297      4.07127      1.96350        -0.022744     -0.053544      0.078712
Cu	      6.09809      2.14158      4.18917        -0.000874     -0.036933     -0.115588
Ni	      4.10199      2.05621      2.00022        -0.038986     -0.132057     -0.071559
O	      6.19708      6.35887      6.16715         0.004267      0.100052      0.118596
O	      2.11499      1.93939      2.00526        -0.107149      0.152428     -0.036118
O	      4.13308      4.08556      2.01124        -0.045299      0.058695     -0.007474
O	      4.20726      2.04578      3.98361        -0.111416     -0.018478      0.045080
O	      6.24779      4.05502      3.91177        -0.012147      0.076500     -0.012261
O	      6.24809      2.08532      6.01477         0.033857     -0.020873      0.282988
O	      8.31376      4.13609      6.10149         0.021048      0.015330     -0.024772
O	      1.92359      4.30161      4.11477        -0.026060      0.046025     -0.039296
O	      3.97770      6.37888      4.02826        -0.062305      0.004916     -0.018959
O	      3.91294      4.15637      6.19655        -0.122254      0.065582     -0.043750
O	      6.29311      4.30845      8.16693        -0.060367      0.065871      0.010747
O	      8.16459      6.37617      8.19887        -0.090044      0.092290     -0.052274
O	      2.04182      6.05756      6.06375         0.004054     -0.041145     -0.020006
O	      4.30631      8.27180      5.99943         0.086513      0.011692     -0.070197
O	      4.21786      6.12313      8.11918         0.088591      0.028793     -0.010821
O	      6.08963      8.24674      8.01881         0.111742     -0.030763     -0.044530
O	      6.32733      6.19989     10.02743         0.073852     -0.001840     -0.057518
O	      8.44489      8.19098     10.01943         0.063340     -0.018402     -0.042234
