# total energy = -202.37444411 eV
 
CRYSTAL
PRIMVEC
0.035541 6.070907 6.193271 
6.237344 0.048345 6.181218 
4.201017 4.081018 -0.010077 
PRIMCOORD
36 1
Li	      6.22872      0.07405      6.14682        -0.015663     -0.031622     -0.042337
Li	      8.34863      8.15206     12.29543         0.018972      0.020852     -0.087246
Li	     10.33102      6.14716      8.21143        -0.033888     -0.014339      0.004435
Li	      4.08567      4.10753      4.12567         0.031022      0.011387      0.014363
Li	      8.39853      6.16611      6.26033        -0.047692     -0.020958      0.030564
Li	      0.05980      4.04248      4.13292        -0.033247      0.037720     -0.007102
Li	      2.16068      6.06228      4.12484        -0.026343      0.039777      0.008826
Li	      2.13669      4.07001      6.06796        -0.026209      0.003190      0.022376
Li	      8.43079      8.05338      8.29508         0.038429     -0.055025      0.069238
Mn	      4.16379      2.08896      2.01676        -0.017778      0.101812     -0.194894
Mn	      4.21240      6.07077      6.17859        -0.006195      0.061475      0.092962
Co	      8.39866     10.16939     10.31435         0.142948     -0.171148      0.041815
Co	      8.32246      4.11832      8.25615        -0.046661      0.105605     -0.063247
Co	      6.27488      4.06638      6.23275        -0.010217     -0.083840      0.064316
Co	      6.31804      6.10606      8.31375         0.059035     -0.136830      0.057352
Cu	      2.07826      6.10713      8.17946        -0.069376      0.006156     -0.182870
Cu	      6.29168      2.08154      4.17474        -0.064152     -0.080829     -0.000176
Cu	      2.06043      2.07820      4.10507         0.024247     -0.063518     -0.004143
O	      2.31925      6.03231      6.24557         0.065525      0.020218     -0.076937
O	      6.14258      6.17029     10.26948        -0.160294     -0.175612      0.002615
O	      8.31874      8.30526     10.27956         0.121651      0.097421     -0.025161
O	      2.24707      2.06578      1.92492         0.115629      0.084378      0.003229
O	      4.03651      3.97444      1.99299        -0.091528      0.000882     -0.000633
O	      4.12123      1.97616      3.99385        -0.134563      0.061461     -0.021893
O	      6.40081      4.14569      3.97110        -0.037859      0.201320      0.081915
O	      6.21368      2.20216      6.10883         0.021593      0.108871      0.064029
O	      8.16202      4.14984      6.09388        -0.047572      0.070012      0.006069
O	      2.11287      3.99184      3.97269         0.028039     -0.057147      0.060823
O	      4.29074      6.11040      4.32048         0.049054     -0.029981      0.047123
O	      4.34211      4.17570      6.23067        -0.005227     -0.056229     -0.030473
O	      6.20720      6.02147      6.38561        -0.030520     -0.052039      0.094434
O	      6.40074      4.18462      8.29068         0.067536      0.041526     -0.002837
O	      8.24058      6.02042      8.29799        -0.006797      0.024256     -0.005642
O	      4.29047      8.01559      6.31037         0.014908     -0.068337      0.074491
O	      4.36877      6.19088      8.27040         0.114962      0.047264     -0.056057
O	      6.15061      8.11806      8.35454        -0.001767     -0.048128     -0.039329
