# total energy = -201.44888317 eV
 
CRYSTAL
PRIMVEC
-0.034443 6.198564 6.211048 
6.059727 -0.025385 6.202248 
4.042490 4.129237 -0.019752 
PRIMCOORD
36 1
Li	      4.01330     10.30640      6.21137         0.034505     -0.048107     -0.058209
Li	      2.02746      0.02319      2.08360         0.021261      0.010386      0.122019
Li	      4.02618      8.20901      8.24540        -0.010263      0.007387     -0.027368
Li	      4.00827      0.05281      4.09221         0.026580     -0.029777     -0.041159
Li	      6.02033      2.05325      4.10755         0.039656      0.085781      0.018609
Li	      2.06890      1.99555      4.13723         0.009231     -0.085178     -0.002267
Li	      6.07387      4.13546      6.16187         0.017354     -0.007817     -0.123748
Li	      5.99972      8.22239      6.22909        -0.011505      0.018683     -0.036059
Li	      5.97646      6.22257      8.24052        -0.027043     -0.011877      0.021818
Mn	      8.03630      6.14153      6.16589        -0.121279     -0.036106     -0.220220
Mn	      8.01561      6.16114     10.36235        -0.068268     -0.077197     -0.027713
Co	      4.03185      6.18061      2.06011         0.122293      0.029277      0.045118
Co	      4.20854      4.05811      4.13028        -0.955200     -0.059913     -0.381499
Co	      4.02919      8.25668      4.13751        -0.061744     -0.068412      0.014461
Co	      7.92244      8.35294      8.22872        -0.154108      0.031497      0.058626
Ni	      8.05871      2.09059      6.20053        -0.059749     -0.004059     -0.075196
Ni	      8.05640      4.07699      8.23584        -0.065217      0.006163      0.031220
Ni	      4.09045      6.23501      6.24157         0.201904     -0.175338     -0.156822
O	      1.89900      2.11838      2.01322        -0.122347     -0.034356      0.076408
O	      3.99142      4.25497      2.15176         0.451454      0.059449      0.560656
O	      4.04127      2.07842      4.29030         0.096560     -0.051833      0.237571
O	      5.97318      4.11508      4.11170         0.035700     -0.025189      0.022321
O	      5.96957      2.04105      6.36028         0.015307     -0.029189      0.135109
O	      8.06518      4.21112      6.22454         0.060191      0.089884     -0.090536
O	      1.96013      4.26344      4.07543         0.170389      0.084297      0.121045
O	      3.94661      6.25269      4.04771        -0.058797      0.211526     -0.002710
O	      4.02245      4.01855      6.20418         0.209041      0.099931     -0.260865
O	      6.15935      6.16468      6.20811        -0.094798      0.087780      0.053366
O	      5.97076      3.97183      8.41161        -0.198126     -0.002320      0.041101
O	      8.14307      6.19308      8.26978         0.004824      0.096750      0.027188
O	      2.04263      6.22800      6.01756        -0.046899     -0.033566     -0.064362
O	      3.99538      8.23339      6.05284         0.061099      0.108327     -0.092571
O	      4.02831      6.12076      8.22175         0.011163     -0.129160      0.168708
O	      6.15418      8.24671      8.28708         0.284077     -0.045122     -0.060223
O	      6.15119      6.02698     10.31133         0.126479     -0.003541      0.017868
O	      8.14043      8.12543     10.31231         0.056273     -0.069062     -0.051683
