# total energy = -203.51104865 eV
 
CRYSTAL
PRIMVEC
0.038669 5.916814 6.350408 
6.189510 -0.000143 6.390316 
4.124384 3.969445 0.001809 
PRIMCOORD
36 1
Li	      6.21787      0.08211      6.34882         0.032428     -0.085080     -0.154940
Li	      6.19722      1.96840      4.36336        -0.023819     -0.072711     -0.011992
Li	      6.14944      1.94813      8.40404        -0.024889      0.043410      0.052746
Li	      6.19771      5.93333      4.35302        -0.010624      0.019683      0.200572
Li	      4.21680      2.00095      6.42730        -0.093911     -0.016717     -0.021410
Li	      8.25529      5.94328     10.49742        -0.007107      0.028926      0.021829
Li	      4.13427      5.91632      6.38570         0.056976      0.005172     -0.164980
Li	      8.22547      7.87321      8.41026        -0.006894     -0.110097     -0.055935
Li	      6.26301      5.96286      8.49860         0.036794      0.023003     -0.035025
Mn	      8.26043      4.00846      8.49297        -0.053080      0.154775      0.402737
Mn	      4.11727      7.86364      4.22460        -0.036113      0.315163      0.033176
Co	      2.10546      7.86786      6.34570         0.072383      0.059568     -0.084768
Co	      2.06782      0.01253      2.12381        -0.176240     -0.128222     -0.003206
Co	      4.11819      0.04072      4.25282        -0.142041      0.206187     -0.427089
Co	      4.19938      3.95180      4.31523        -0.063011      0.124111      0.133069
Co	      6.25879      7.83718      6.41708        -0.011306      0.975352     -0.305739
Cu	      4.20263      7.86299      8.46896         0.107969      0.083381      0.080899
Ni	      6.16854      3.99023      6.42801         0.088270      0.073209      0.079798
O	      8.27115      5.82167      8.48343         0.110617     -0.055963      0.021181
O	      2.15284      1.97304      1.92052         0.167567     -0.062090     -0.061004
O	      4.10206      3.90861      2.23112         0.106692     -0.165343     -0.140732
O	      4.14621      2.04874      4.35273         0.006110     -0.413172     -0.172903
O	      6.26837      4.00540      4.13719         0.093342     -0.096661     -0.169381
O	      6.36618      2.01879      6.37976         0.065684      0.096034      0.067106
O	      8.23798      3.88743      6.51721        -0.069795     -0.081151     -0.556877
O	      1.96979      3.95465      4.13319        -0.042353     -0.105068     -0.293370
O	      4.12328      5.88475      4.22095        -0.038523     -0.059270     -0.066443
O	      4.14487      3.96921      6.29156        -0.002331     -0.026258      0.144237
O	      6.19099      6.02803      6.40220        -0.074856     -0.561527      0.062376
O	      6.33769      3.92761      8.60833         0.010884     -0.035884     -0.130498
O	      2.07113      5.90470      6.53997         0.035663     -0.149354      0.265244
O	      4.11040      7.89853      6.11932         0.065392     -0.035433      0.144507
O	      4.00583      5.94328      8.53434        -0.039723     -0.018355      1.119633
O	      6.17768      8.00621      8.42626        -0.250161      0.043749      0.142566
O	      6.03843      5.83755     10.58694         0.109971     -0.166383     -0.018918
O	      8.36429      7.96622     10.76192         0.000037      0.193018     -0.096467
