# total energy = -206.93460223 eV
 
CRYSTAL
PRIMVEC
0.030055 6.160044 6.222450 
6.163256 0.032667 6.220432 
4.138243 4.134823 -0.008785 
PRIMCOORD
36 1
Li	      4.20520      8.25836      8.30331         0.041956      0.033550      0.003644
Li	      6.16548      8.23802     10.32383         0.006102      0.012568     -0.062382
Li	      6.15091      2.09959      8.26833         0.060833      0.066044     -0.016663
Li	      4.11947      4.09500      4.28267        -0.026188     -0.063732     -0.079720
Li	      4.09029      2.23641      6.25706        -0.000630     -0.108563      0.043362
Li	      6.02515      4.14563      6.28110         0.063017     -0.000709      0.078464
Li	      2.18714      6.16791      4.08917        -0.027492      0.009658     -0.061568
Li	      6.33165      8.14867      6.29162        -0.068219      0.007831      0.050932
Li	      8.20764      8.17920      8.15749        -0.014638     -0.057258      0.100754
Mn	      8.20363      2.11916      6.21878         0.078822      0.047793     -0.001598
Mn	      4.06762      0.05110      4.09898         0.064953      0.004521      0.230279
Co	      6.21054      6.21169     12.42026         0.066000     -0.019756      0.122488
Co	      2.14194      4.21685      2.10626        -0.004255     -0.853055     -0.266941
Co	      6.18862      6.21156      4.20507         0.056137      0.197162     -0.138375
Co	      6.19213      4.15228     10.36558         0.186496      0.024060     -0.133221
Co	      4.19449      6.06570      6.23636        -0.221771     -0.041254     -0.083213
Co	      6.22918      6.22094      8.28315         0.418886     -0.154904     -0.314345
Cu	      6.16624     10.20711      8.28704        -0.043627     -0.051956     -0.013480
O	      6.19627      8.06459      8.33342         0.008739     -0.000132      0.106767
O	      2.07617      2.26204      1.91045        -0.030767      0.206140      0.055018
O	      4.16675      4.13917      1.88135        -0.417504      0.082035     -0.198554
O	      3.95533      1.95350      4.15439         0.046442     -0.047978     -0.001200
O	      6.26950      4.24610      4.05230         0.028187      0.028710      0.110513
O	      6.31208      1.98785      6.15622         0.009857     -0.006435     -0.044499
O	      8.35309      4.07439      6.13215         0.044091      0.051818     -0.173736
O	      1.97264      4.01270      4.12557        -0.189165     -0.072983      0.116352
O	      4.29806      6.33074      4.13604        -0.035495      0.013216      0.258062
O	      4.12270      4.15932      6.19547         0.027160      0.190825      0.000692
O	      6.16254      6.17399      6.27442         0.270146     -0.270171      0.677064
O	      6.25708      4.27699      8.44994         0.155086      0.132210      0.077731
O	      8.28321      6.08810      8.32455        -1.064118      0.487877     -0.002655
O	      2.01564      6.31602      6.27428        -0.080015      0.002839     -0.112463
O	      4.04749      8.30573      6.09101        -0.043761      0.008038      0.002913
O	      4.09335      6.13908      8.39227         0.670846      0.127010     -0.109536
O	      6.07364      6.11128     10.43586        -0.058184     -0.062198     -0.265043
O	      8.35928      8.35413     10.46527         0.022075      0.077179      0.044158
