# total energy = -206.44145321 eV
 
CRYSTAL
PRIMVEC
0.000924 6.128784 6.130660 
6.229983 -0.005161 6.136607 
4.151917 4.088616 -0.001945 
PRIMCOORD
36 1
Li	      8.32504      8.14083     12.21481        -0.055317      0.030890      0.057546
Li	      6.29004      8.15054     10.19388        -0.061950      0.071218      0.027232
Li	      6.16749      2.13402      8.19150        -0.105684     -0.082046     -0.099878
Li	      8.20234      4.12854      8.21225         0.011758      0.067123     -0.054508
Li	      2.07180      2.06089      4.05752         0.029877      0.026056      0.093769
Li	      8.30184      6.17962     10.14990         0.010768     -0.058080     -0.115920
Li	      4.14988      6.12784      6.12015         0.098914     -0.093755      0.026848
Li	      8.39717      8.09174      8.26219        -0.058324     -0.083821     -0.105212
Li	      6.32542      6.10050      8.19923         0.108688      0.060141     -0.123976
Mn	      6.21225      0.02710      6.10797        -0.188666      0.184724      0.375427
Mn	      2.11590      6.13970      8.20040         0.013732     -0.021771      0.041838
Co	      4.14696      8.15077      8.16974         0.004506      0.044470      0.222359
Co	      4.07572      4.16345      4.08832        -0.048842     -0.237593      0.164450
Co	      8.27042      6.14332      6.19839         0.021076      0.116497     -0.088570
Co	      6.22724      4.08424      6.20034        -0.264844      0.176052     -0.089697
Co	     10.36226      8.10218     10.13686        -0.236629      0.218630      0.116575
Co	      6.22741      8.15258      6.15727         0.103226     -0.215257     -0.025390
Ni	      8.32085     10.19229     10.21506        -0.194182      0.155540      0.096044
O	      2.21499      1.90431      1.98453         0.064353     -0.017023      0.007343
O	      4.25801      3.99586      1.98329         0.069224     -0.021228     -0.172194
O	      4.14677      2.15894      4.03033        -0.030426      0.233029     -0.410992
O	      6.21521      4.07141      4.02992        -0.127736      0.054278     -0.152612
O	      6.02955      2.04310      6.11895         0.603562     -0.120272     -0.038606
O	      8.30019      4.22709      6.12790         0.360397     -0.258335      0.039759
O	      2.03090      4.08608      4.22405        -0.505263      0.019331      0.023535
O	      4.13777      5.98737      4.08528         0.019045      0.916656     -0.105731
O	      4.03659      3.97272      6.11016        -0.058852      0.168784     -0.182273
O	      6.40571      6.19905      6.13015        -0.539242     -0.269427      0.076197
O	      6.25116      4.09203      8.16116         0.051761     -0.062248      0.985908
O	      8.30936      6.12994      8.00192        -0.011940     -0.015138      0.295618
O	      2.05488      6.00983      6.26003        -0.203449      0.045279     -0.013907
O	      4.29008      8.19571      6.22269         0.019415      0.063056     -0.509332
O	      4.02729      6.23345      8.18401        -0.007557      0.028985     -0.047459
O	      6.11413      8.25102      8.10798        -0.027892      0.041982     -0.003813
O	      6.21684      6.10064     10.35543         0.230418     -0.937444     -0.251826
O	      8.42913      8.17801     10.25241         0.906075     -0.229282     -0.058552
