# total energy = -209.74027504 eV
 
CRYSTAL
PRIMVEC
0.072190 6.178791 6.075738 
6.178791 0.072190 6.075738 
4.146838 4.146838 0.020989 
PRIMCOORD
36 1
Li	      4.25743     10.30670      6.14208        -0.031491     -0.213368     -0.149653
Li	      2.17165      8.20179      6.13687         0.212848      0.087355     -0.091029
Li	      4.20336      8.36783      8.01501         0.019673     -0.134530     -0.027779
Li	      4.07845      4.14092      4.09314        -0.031166     -0.031515      0.174536
Li	      8.27117      6.29296      6.14208        -0.213175     -0.034668     -0.149346
Li	      6.16626      4.20718      6.13687         0.083154      0.212593     -0.093089
Li	      2.10539      6.11399      4.09314        -0.033612     -0.035191      0.171929
Li	      2.10782      4.14336      6.07489        -0.012268     -0.016153     -0.053604
Li	      6.33230      6.23890      8.01501        -0.134517      0.018632     -0.027380
Mn	      6.17757      2.10650      4.13947         0.006683      0.005594     -1.087299
Mn	      8.27971      4.20864      4.16056        -0.121388     -0.118862     -0.451342
Co	      6.17569      2.10462      8.02205        -0.089997     -0.088555     -0.387876
Co	      8.31178      4.24071      8.01082        -0.081873     -0.090010     -0.153291
Co	      4.19029      6.22583      6.08453        -0.208482     -0.207503      0.623402
Co	      2.14504      6.20672      8.07826         0.135791     -0.042300      0.063455
Co	      6.22485      6.23686      4.08276        -0.149707      0.090187      0.369460
Co	      4.20133      8.26039      4.08276         0.088365     -0.148291      0.370759
Co	      4.17118      4.18058      8.07826        -0.042642      0.134097      0.062287
O	      4.16125      4.31990      6.17488         0.043790     -0.225675      0.143928
O	      6.07913      6.23539      5.98631         0.291481      0.011997     -0.092377
O	      2.28437      6.19678      6.17488        -0.229050      0.043893      0.145868
O	      4.19985      8.11466      5.98631         0.010913      0.294774     -0.094005
O	      2.06151      1.99965      2.11988        -0.448744     -0.320887     -0.149876
O	      4.25634      4.17133      2.07380         0.167173      0.790981     -0.055780
O	      4.06701      1.96722      4.05112         0.157009      0.326861     -0.074907
O	      6.31690      4.24131      3.99253        -0.150193     -0.101317     -0.058912
O	      6.19555      2.12449      5.97671         0.014692      0.018095      1.777495
O	      8.25441      4.18335      6.03372        -0.028141     -0.026081      0.607896
O	      1.97366      4.00919      3.95772        -0.029620     -0.029709      0.103797
O	      4.28815      6.32368      4.13189         0.158903      0.159663     -2.118815
O	      6.14291      4.16924      8.19561        -0.313296     -0.449822     -0.151586
O	      8.31458      6.36406      8.14954         0.798494      0.178474     -0.060389
O	      4.08787      6.12340      8.10149        -0.013566     -0.010782      0.675561
O	      6.37771      8.41324      8.22479        -0.048194     -0.052966      0.378430
O	      6.11047      6.17473     10.12685         0.325267      0.152208     -0.082111
O	      8.38457      8.42462     10.06826        -0.103115     -0.147219     -0.058353
