# total energy = -197.05221853 eV
 
CRYSTAL
PRIMVEC
0.058808 6.182287 6.036238 
6.366279 0.030690 6.064117 
4.266123 4.161990 -0.001894 
PRIMCOORD
36 1
Li	      4.41612      8.28307      8.07280         0.038408     -0.082056     -0.031182
Li	      4.26087      0.05095      4.04560         0.065401     -0.045327      0.009149
Li	      6.43502      8.26722     10.02012         0.061081     -0.010689      0.013417
Li	     10.54349      6.22334      8.02334        -0.066702      0.060299     -0.000693
Li	      8.49534      4.28495      8.07720        -0.101377      0.028996     -0.002625
Li	      8.56286      6.22495      6.13540         0.019231      0.009121      0.048119
Li	      6.44242      8.29187      6.15362        -0.006271     -0.025377     -0.033996
Li	      8.44821      8.23920      8.07952         0.002907      0.009361      0.028474
Li	      6.51247      6.31927      8.05034         0.022018      0.032155     -0.009359
Mn	      2.18322      2.07669      4.00751         0.002905      0.036560     -0.037637
Mn	      6.37466      4.16194     10.02923        -0.103511      0.095209     -0.148962
Fe	      6.46615      4.11035      6.16972        -0.157085      0.192663      0.002985
Co	      4.29733      6.19928      6.05688        -0.035685      0.008112      0.381186
Cu	     10.52951      4.25959      6.13478        -0.083715      0.062995     -0.022235
Cu	      4.31193      4.09562      3.95193        -0.012381     -0.029769      0.015817
Ni	      2.12421      2.08693      0.02847         0.017155     -0.032238      0.053982
Ni	      6.46374     10.29736      8.04375         0.143390      0.066803     -0.004917
Ni	      8.50809      6.22338     10.03509        -0.038016     -0.060988      0.050584
O	      8.51362      6.23536      8.14733         0.019893     -0.000757     -0.274602
O	      6.43964      8.43059      8.09425        -0.041030     -0.255267      0.012820
O	      2.13605      1.90462      2.10285        -0.000600      0.151033      0.137858
O	      4.42206      4.14085      1.99374        -0.132248     -0.032016      0.129209
O	      4.04678      2.16266      4.08644        -0.022716      0.081872     -0.044519
O	      6.49742      4.33233      4.07677         0.050821      0.051329      0.062271
O	      6.42132      2.17352      6.01451        -0.103063     -0.252796     -0.005392
O	      8.42840      4.13900      6.12676         0.199606      0.150168     -0.060374
O	      1.96020      4.03997      3.99802        -0.049012     -0.098100      0.015029
O	      4.38287      6.27832      4.08693         0.072401     -0.126055      0.049631
O	      4.37592      4.31536      5.90640         0.000506     -0.031691     -0.052926
O	      6.25638      6.18129      5.98493         0.030018      0.051336     -0.065388
O	      6.36339      4.18123      8.11171         0.015459     -0.017519      0.189474
O	      2.35947      6.20819      5.96260         0.006996     -0.113687      0.022591
O	      4.25726      8.12410      5.93215         0.112202      0.073811     -0.068956
O	      4.16678      6.20264      7.84920         0.145286     -0.031314     -0.219508
O	      6.43887      6.07418     10.22084        -0.078916     -0.010868     -0.086359
O	      8.73146      8.23358     10.08694         0.006644      0.094689     -0.052967
