# total energy = -93.08324222 eV
 
CRYSTAL
PRIMVEC
2.009581 4.163383 2.046261 
4.149345 -4.229422 0.001545 
4.133561 -0.014293 -4.178601 
PRIMCOORD
16 1
Li	      2.13188     -0.02437     -2.10613         0.059081     -0.059694     -0.063453
Li	      4.14519      2.01052      1.98934         0.020703     -0.086945     -0.076493
Li	      4.10964      0.02393     -0.00104         0.035029      0.087689      0.010502
Li	      4.14245     -2.06147     -2.07483        -0.011184      0.079029      0.029548
Mn	      0.02296      0.00147     -0.00979        -0.615769     -0.014675      0.232868
Mn	      2.08259      2.08848     -0.04953         0.428373     -0.128587     -0.181878
Ni	      4.09708      2.07096     -2.09898         0.079145     -0.088220      0.140407
Ni	      6.24870     -0.03119     -2.08088        -0.022445     -0.014067      0.087790
O	      6.17467     -0.20620      0.04082        -0.033234     -0.025994     -0.041628
O	      6.22030     -2.08772     -1.96048        -0.207829      0.065252      0.242563
O	      3.97335      2.05006     -0.04358        -0.261577     -0.058120      0.015793
O	      4.18973     -0.00850     -2.26680         0.099157     -0.048562     -0.073572
O	      8.37409     -0.09069     -2.13512         0.042189      0.061250     -0.026072
O	      4.22561     -2.30440     -0.01991         0.144081      0.104736     -0.169010
O	      6.20513      2.15438     -2.23281         0.009171     -0.020204     -0.039192
O	      1.97094      0.11786      0.02816         0.235108      0.147112     -0.088170
