# total energy = -197.02349333 eV
 
CRYSTAL
PRIMVEC
-0.008315 6.169632 6.276754 
6.184063 0.025336 6.241957 
4.139805 4.107292 0.000139 
PRIMCOORD
36 1
Li	      6.19369      6.16596     12.43635         0.098737     -0.009051      0.043676
Li	      4.06806      4.16719      4.29468        -0.053432     -0.003153      0.057966
Li	      6.10311      4.13353      6.34944        -0.099065      0.003571      0.090387
Li	      6.20554      4.19453     10.34984         0.020894     -0.079464     -0.012221
Li	      8.17712      6.13006     10.42497         0.053881     -0.049885     -0.026866
Li	      2.10578      4.12070      6.21565        -0.011775      0.009783      0.017801
Li	      4.11537      6.14774      6.25299        -0.011877      0.056831     -0.031313
Li	      4.23347      4.08409      8.27011         0.011828     -0.034487     -0.031899
Li	      6.17996      6.10413      8.39667         0.038036     -0.020690     -0.028510
Mn	      6.18674     10.26076      8.33848        -0.102270     -0.255947     -0.336416
Mn	      6.16144      6.21689      4.23740        -0.252425      0.302747      0.048758
Fe	      8.28208      8.27590     12.41971         0.008692     -0.168267      0.285613
Co	      4.12747      6.18431     10.42670         0.686978     -0.480520      0.016705
Cu	      4.15404      8.24477      8.32531        -0.035853      0.030846     -0.094800
Cu	     10.28815      6.23811      8.35947         0.078006     -0.162326      0.043447
Cu	      8.25739      6.20710      6.30359        -0.123248     -0.092524      0.005889
Ni	      6.18020      8.20223     10.45676        -0.082113      0.262370      0.007277
Ni	      8.22101      4.18649      8.35075         0.080190     -0.043918      0.023104
O	      8.33988      6.15298      8.33609        -0.217263      0.106162     -0.008674
O	      3.99313      8.24182      6.39960         0.203109      0.049617     -0.114928
O	      6.03936      6.23644     10.39380        -0.055496     -0.170928      0.048731
O	      2.06661      2.01113      2.16009         0.000991     -0.081729      0.015209
O	      4.23930      4.10743      2.11165         0.063252      0.433104      0.020409
O	      4.05341      1.95805      4.09374        -0.184554      0.760876     -0.006994
O	      6.29284      4.17882      4.03441        -0.211247      0.061227      0.064066
O	      6.28807      2.09024      6.30108        -0.066156      0.014129     -0.098503
O	      8.26792      4.20804      6.13660        -0.033582      0.107365     -0.053491
O	      2.08901      3.97123      4.12010        -0.016412     -0.068342      0.140495
O	      4.27723      6.15622      4.11000         0.168809     -0.046782      0.166772
O	      4.12027      3.94632      6.26912         0.027601      0.210094     -0.036394
O	      6.18891      6.16461      6.06940        -0.047764     -0.072674     -0.084407
O	      6.25015      4.07094      8.33378        -0.068839      0.178311     -0.039916
O	      2.07820      6.25078      6.43698         0.027291     -0.120256      0.091113
O	      3.99676      6.21938      8.48363        -0.109859     -0.221438      0.021120
O	      6.10588      8.38413      8.39767         0.288920      0.154467     -0.017263
O	      8.20974      8.35890     10.49875        -0.073983     -0.559118     -0.185941
