# total energy = -197.99110910 eV
 
CRYSTAL
PRIMVEC
0.036027 6.250483 6.059409 
6.298632 0.029113 6.066315 
4.213434 4.186044 0.004906 
PRIMCOORD
36 1
Li	     10.46739      4.24726      6.06419        -0.028874     -0.029969     -0.050721
Li	      6.31502      4.16843      2.05746         0.056457     -0.073447      0.012289
Li	      8.40813      4.19967      4.09036         0.015393     -0.011102     -0.007872
Li	      6.27824      2.18789      4.09015         0.011782      0.001599     -0.066419
Li	      8.43555      4.22716      8.03182        -0.028659      0.051895      0.042271
Li	      4.26392      2.08512      6.06910        -0.031941     -0.025023      0.028086
Li	      6.34246      4.14687      6.04979         0.035139      0.053111      0.073227
Li	      4.20406      6.21478      6.09882         0.010372     -0.019552      0.007757
Li	      4.23551      4.20719      8.03288        -0.003291      0.017427      0.000837
Mn	      8.42173      2.17427      6.08258         0.055514      0.036105     -0.296761
Mn	      6.30898      6.25892      8.07020        -0.089097      0.002267     -0.087332
Fe	      6.32823      6.23190      4.10673         0.023081      0.093215      0.122893
Co	      6.29336      4.24013     10.08900        -0.024446      0.008615     -0.083498
Cu	      4.27429      8.32310      8.08423        -0.083188      0.016412     -0.013987
Cu	      6.29631      2.12042      8.02948         0.104234     -0.094050     -0.202313
Cu	      4.30785      4.11471      4.06422        -0.063948     -0.006850      0.232597
Cu	      8.39941      6.30125     10.10426        -0.058786      0.042756     -0.005617
Ni	      2.16322      4.21301      6.07799        -0.026788      0.022676      0.049869
O	      8.29602      6.31355      8.22097        -0.008229      0.020467     -0.237642
O	      4.39550      6.31795      8.08419        -0.125898     -0.012992     -0.044603
O	      6.28477      8.23044      8.09649         0.120200      0.042053      0.099353
O	      8.57761      8.34441     10.20862        -0.012337      0.009965      0.122975
O	      2.19343      2.06294      1.97187         0.051059      0.023460      0.006444
O	      4.24548      4.12127      2.20226        -0.022812      0.055089     -0.181721
O	      4.08966      2.09248      4.00446        -0.060391     -0.069559      0.101233
O	      6.24315      4.31886      4.05235         0.100812     -0.083613     -0.004159
O	      6.47340      2.08953      6.12788         0.082311     -0.042484      0.202456
O	      8.43165      4.03275      6.07207        -0.005423     -0.151029      0.021874
O	      1.92352      4.15821      4.06033         0.003285     -0.008422     -0.118124
O	      4.28828      6.47649      3.90943        -0.005860      0.000788     -0.150544
O	      4.17951      4.17787      5.90303         0.112640     -0.027116      0.020613
O	      6.34917      6.31298      6.10552         0.013838     -0.054063      0.175110
O	      6.26666      4.33089      8.17297         0.001923     -0.022906      0.114724
O	      2.14035      6.31452      5.91079         0.030351      0.232047      0.312313
O	      4.14673      8.37119      6.02837        -0.143926     -0.009137     -0.153875
O	      6.31425      6.14648     10.00417        -0.004500      0.011368     -0.041734
