# total energy = -197.05633328 eV
 
CRYSTAL
PRIMVEC
-0.047709 6.276744 6.293978 
6.145392 0.011466 6.233675 
4.095217 4.142882 0.009473 
PRIMCOORD
36 1
Li	      6.10695      8.33782     10.46664         0.009110     -0.032826      0.018135
Li	     10.14103      6.33160      8.34885        -0.011227     -0.004680     -0.044757
Li	      6.12012      6.24049      4.26116         0.010021      0.016845      0.054198
Li	      8.14713      6.25806      6.34417         0.076510     -0.087957      0.015470
Li	      6.09154      4.17453      6.36596         0.011597     -0.070827      0.094770
Li	      6.11642      4.22434     10.33347         0.017455     -0.004674      0.033127
Li	      8.19539      6.21525     10.31522        -0.034385      0.008528      0.010304
Li	      8.18379      8.23803      8.38690         0.049809     -0.058984      0.033961
Li	      6.22481      6.17028      8.30499        -0.010980     -0.095714      0.035668
Mn	      8.13164      2.10807      6.18247        -0.052732      0.060137     -0.221118
Mn	      4.07457      6.27710     10.39326         0.063297     -0.034412      0.114644
Fe	      4.10693      8.36349      8.40102        -0.110581      0.062334     -0.118310
Co	      6.09660      0.06829      6.21075         0.033477      0.120555     -0.126264
Cu	      8.09396      4.22582      8.37646         0.016366     -0.104670      0.053333
Cu	      4.09664      4.19875      4.23911         0.210435     -0.125396     -0.033608
Cu	      6.15112      8.23844      6.27220        -0.094451     -0.010453      0.080540
Cu	      4.19706      6.15144      6.24771        -0.033460     -0.242338      0.069295
Cu	      6.12949      4.17175      2.10837        -0.036317      0.073580      0.033270
O	      6.25383      4.17553      8.35613        -0.309469     -0.051643      0.043959
O	      8.16305      6.09236      8.35488         0.003836      0.270006      0.019003
O	      6.05754      8.45107      8.24073         0.119676      0.192088      0.001049
O	      5.98205      6.29180     10.60630         0.050510      0.015257     -0.073179
O	      2.06166      2.20491      1.90326         0.043621     -0.151897      0.145976
O	      3.87459      4.13798      2.05799         0.195740      0.033752     -0.149994
O	      4.09921      1.96563      4.06963        -0.076697      0.030564     -0.007942
O	      6.18888      4.15007      4.04010         0.002548      0.023729     -0.074873
O	      6.25289      1.98576      6.22445        -0.056244     -0.009488     -0.040467
O	      8.24304      4.07236      6.04221        -0.044993      0.074042      0.080938
O	      2.15224      4.16546      4.35913        -0.136744     -0.057867     -0.186698
O	      4.09319      6.15047      4.33887        -0.017895      0.191157     -0.066878
O	      4.02026      4.10537      6.21985         0.232999      0.136578      0.285383
O	      6.08302      6.30481      6.29742        -0.025224     -0.163983     -0.011975
O	      1.86560      6.44102      6.40678        -0.030720     -0.042194      0.019386
O	      3.96253      8.51559      6.33399        -0.051382      0.025811      0.001733
O	      4.14634      6.33840      8.42494        -0.014842     -0.005917     -0.069844
O	      8.14611      8.46619     10.54813         0.001337      0.020957     -0.018235
