# total energy = -199.99812264 eV
 
CRYSTAL
PRIMVEC
-0.022501 6.161752 6.241537 
6.160277 -0.016117 6.234331 
4.090995 4.087265 0.005278 
PRIMCOORD
36 1
Li	      2.09040      6.19294      8.33614         0.029565      0.029168     -0.036515
Li	      4.04159      2.02514      2.09645         0.025839     -0.049627     -0.063330
Li	      6.12316      2.08602      8.33187        -0.005700     -0.018619     -0.027866
Li	      6.12263      6.12167      4.25484        -0.026320     -0.041125     -0.024112
Li	      8.13036      6.14401      6.33681         0.065383     -0.031794      0.019265
Li	      6.13290      4.15929      6.33297         0.045601     -0.074057     -0.017729
Li	      6.16203      4.09168     10.26529        -0.072620     -0.000053      0.016224
Li	      4.20231      4.12860      8.27480         0.015285      0.050355     -0.010797
Li	      6.16395      6.04783      8.27830        -0.078429     -0.001144      0.024776
Mn	      8.19703      2.05296      6.23076         0.142530     -0.043803     -0.223287
Mn	      4.08037      4.08091      4.19894         0.405701      0.107078      0.030507
Fe	      6.11068      8.18023     10.17494         0.103550     -0.002011      0.480247
Co	      6.14072      6.13315     12.45974         0.009962      0.074690      0.042520
Co	      6.18071      8.13299      6.35079        -0.401215     -0.057354      0.388116
Cu	      8.13785      4.08005      8.32273         0.119760     -0.025739     -0.042253
Ni	      8.19779      6.10397     10.33773        -0.064935      0.269843      0.005901
Ni	      4.07869      6.17856     10.26038        -0.036363     -0.022522     -0.066270
Ni	      4.14383      6.14577      6.32600        -0.189750      0.025805      0.096777
O	      6.29217      4.05462      8.29624        -0.128959      0.030218     -0.023439
O	      8.18894      5.94536      8.36737        -0.002659      0.002961     -0.139643
O	      2.00916      2.19119      1.87289         0.027200     -0.028131      0.120619
O	      3.89841      4.10188      2.23135         0.037840     -0.006125      0.151628
O	      4.15051      2.11057      4.17937        -0.090481      0.168464     -0.038046
O	      6.04422      4.04712      4.14276        -0.224047     -0.060622     -0.012273
O	      6.28827      1.88082      6.16027        -0.105277      0.065305     -0.116717
O	      8.29621      3.95731      6.02361        -0.146556      0.042559      0.152189
O	      2.15982      4.10231      4.44766        -0.179499     -0.166957      0.030120
O	      4.05523      6.01575      4.31239         0.218031     -0.167217     -0.170313
O	      4.01758      4.10642      6.19157         0.648054     -0.045967     -0.152502
O	      6.08571      6.29869      6.28298         0.025197     -0.318739     -0.017935
O	      1.97547      6.21489      6.25018         0.073786      0.100077      0.176615
O	      4.03791      8.30937      6.23657        -0.189975      0.070333     -0.001259
O	      4.06761      6.16220      8.29029         0.022329      0.028511      0.080473
O	      6.15469      8.21754      8.26193         0.011204      0.043080     -0.512067
O	      6.13922      6.19303     10.40426        -0.090030      0.068886     -0.158228
O	      8.14159      8.17982     10.47607         0.005996     -0.015727      0.038603
