# total energy = -200.34788732 eV
 
CRYSTAL
PRIMVEC
0.028549 6.124308 6.290369 
6.211529 0.045703 6.273852 
4.157126 4.087947 0.013971 
PRIMCOORD
36 1
Li	      8.35477      8.22612     12.52756         0.045032      0.048706     -0.017112
Li	      8.31787     10.20315     10.47051        -0.018573      0.029315      0.041515
Li	      8.21140      4.15255      8.38315        -0.008944     -0.023691     -0.016467
Li	      4.16826      4.13860      4.22605        -0.002887     -0.027914      0.050103
Li	      6.19843      4.15122      6.36280        -0.016182      0.023867      0.007934
Li	      6.21477      4.13260     10.33952         0.024589      0.012426     -0.032164
Li	      4.17407      6.10464      6.29911         0.035194     -0.032897      0.004958
Li	      4.28934      4.11824      8.38320        -0.006523     -0.009957     -0.031922
Li	      6.20417      6.04272      8.39722        -0.013948     -0.019211     -0.030725
Mn	      4.10659      2.03864      2.10588        -0.017421      0.171966      0.019781
Mn	      6.23640      2.11299      4.19438        -0.157645     -0.047807     -0.003914
Fe	      2.13143      4.06755      6.21872        -0.029330     -0.110467      0.268249
Co	      6.17986      6.13257      4.23210         0.032180     -0.017594      0.016578
Co	      8.28678      6.14429      6.39118        -0.095480      0.117962      0.030664
Cu	     10.35143      4.13511      6.27400        -0.086360      0.031563     -0.078799
Cu	      8.35154      6.17598     10.42544         0.010549     -0.019242      0.032927
Ni	      2.13680      6.14734      8.36434         0.064727     -0.028514      0.080525
Ni	      6.21615      2.12243      8.39664         0.084808     -0.054069     -0.047044
O	      6.23581      4.02059      8.35789        -0.008038      0.145353      0.036415
O	      6.30226      6.26216     10.54609        -0.048148      0.168577     -0.135508
O	      2.16187      2.05319      2.12683         0.072208      0.113756      0.021370
O	      4.20984      4.08672      2.00632         0.044696     -0.113925      0.086471
O	      4.20348      2.09012      4.05413         0.073361     -0.036724     -0.036220
O	      6.22967      4.04357      4.16070        -0.011756     -0.028973      0.033427
O	      6.10680      2.05277      6.19669        -0.010506      0.172973     -0.169574
O	      8.38147      4.31935      6.26358        -0.131442     -0.103937     -0.018094
O	      2.07564      4.09962      4.28643        -0.019078     -0.103769     -0.244266
O	      4.17414      6.14209      4.15181         0.117389     -0.007404      0.078212
O	      4.06932      3.93457      6.32341         0.148623      0.012936      0.020606
O	      6.34093      6.16216      6.29169         0.037004     -0.104194     -0.028988
O	      8.38221      6.15708      8.39891        -0.077707     -0.000292     -0.021004
O	      2.07779      6.06900      6.28915        -0.068524      0.056075     -0.079599
O	      4.21647      8.23724      6.45972         0.050362     -0.165954      0.075506
O	      4.14881      6.30122      8.34568         0.067081     -0.072722      0.059332
O	      6.10829      8.18376      8.47875        -0.058975     -0.047090      0.038370
O	      8.15081      8.17442     10.49246        -0.020333      0.070872     -0.011546
