# total energy = -200.41990560 eV
 
CRYSTAL
PRIMVEC
0.020377 6.208078 6.214024 
6.209390 0.009979 6.224399 
4.135644 4.141675 0.010690 
PRIMCOORD
36 1
Li	      4.19803     10.24077      6.22061         0.031931     -0.042702      0.004337
Li	      6.25052     10.28322      8.29268         0.075384      0.021016     -0.003733
Li	      6.16185      6.26465      4.22385        -0.090601      0.074303     -0.021953
Li	      4.09682      4.18172      4.20414        -0.040202      0.047790     -0.002936
Li	      4.21359      8.26164      4.23912         0.008642     -0.015427      0.082521
Li	      6.21763      8.26710      6.25289        -0.055059      0.034240      0.045690
Li	      4.17956      6.21309      6.21693        -0.025145      0.026417     -0.026164
Li	      4.10508      4.20084      8.21733         0.005485      0.060529     -0.001495
Li	      6.19361      6.27525      8.26299        -0.077382     -0.026939     -0.013937
Mn	      6.17802      4.17835      6.18993         0.053941      0.135068     -0.091897
Mn	      2.05421      6.19160      4.15849         0.180028     -0.005371      0.542059
Fe	      4.16424      6.13255      2.12697         0.052647      0.225342     -0.014404
Co	      4.18702      6.21646     10.29017        -0.184096      0.128335      0.941356
Co	      6.23201      8.28764     10.34981        -0.026374     -0.110446     -0.182850
Cu	      2.14320      8.21823      6.21842         0.096022      0.143060      0.174227
Cu	      4.19375      8.28848      8.29441         0.124109     -0.086085     -0.173124
Cu	      2.08212      4.11363      2.11572        -0.029849     -0.052927      0.160131
Ni	      8.23962      6.25522      6.22664         0.040179     -0.069355      0.039392
O	      4.07293      8.26187      6.34004         0.237870     -0.039034      0.004391
O	      4.15439      6.27843      8.48820        -0.022601     -0.144588     -0.972174
O	      6.16032      8.32346      8.44415         0.242746      0.008983      0.097165
O	      2.05308      2.07322      2.01948        -0.168463      0.176786      0.382030
O	      4.04524      4.17738      2.06078         0.081303     -0.144785     -0.022541
O	      4.29012      2.00776      4.12374        -0.057047     -0.255204      0.045379
O	      6.24363      4.01334      4.24969         0.260365      0.175787     -0.132330
O	      6.22142      2.18072      6.16700        -0.097672     -0.032538     -0.151582
O	      8.19150      4.14532      6.00312        -0.106541      0.020337      0.258280
O	      2.02744      4.33585      4.25323         0.016626     -0.051284     -0.120039
O	      4.01562      6.26008      4.05671        -0.208154      0.022516      0.193400
O	      4.30328      4.11130      6.24455         0.079412      0.074511      0.044112
O	      6.24722      6.05857      6.19080        -0.110255     -0.041447      0.000071
O	      6.33450      4.04614      8.11476        -0.124003      0.107108      0.001076
O	      8.33691      6.19546      8.37560        -0.032627     -0.053438     -0.112000
O	      2.09237      6.27044      6.06178        -0.045305     -0.327500     -0.344890
O	      6.29338      6.35773     10.36656        -0.106955     -0.138183     -0.058740
O	      8.17523      8.25615     10.41832         0.021642      0.155126     -0.568827
