# total energy = -200.15564077 eV
 
CRYSTAL
PRIMVEC
-0.039625 6.204425 6.107708 
6.302586 -0.034844 6.102377 
4.170123 4.101091 0.009065 
PRIMCOORD
36 1
Li	      6.34047      0.04513      6.08880         0.009689     -0.123823      0.148622
Li	      2.02021      8.19276      6.10917         0.083125      0.023610      0.089145
Li	      6.25485      2.07673      8.08690         0.070735     -0.118259      0.041731
Li	      6.22034      6.18502      4.11032        -0.057148      0.119703     -0.075633
Li	      4.15575      4.13189      4.10926        -0.077322      0.028028     -0.095214
Li	      6.18115      4.08325      6.14072         0.075468      0.042214     -0.057162
Li	      2.09174      6.20678      4.07926         0.043656     -0.117813      0.050661
Li	      2.13053      4.10333      6.04955        -0.108666      0.043218     -0.056198
Li	      8.42665      8.09544      8.12615         0.014854      0.009282      0.004661
Mn	      2.05617      0.01586      2.01322        -0.108489      0.174307     -0.194987
Mn	      4.16125      6.13288      6.09223        -0.055913      0.051368     -0.046519
Fe	      8.34680      4.04307      4.19729        -0.036024      0.055631      0.153749
Co	      4.16194      2.06198      2.03052        -0.197399      0.371826     -0.134811
Co	      8.35088      4.10273      8.16333         0.073425     -0.059895     -0.748260
Cu	      6.31120      2.02971      4.10670         0.005194      0.012433     -0.060891
Cu	      4.23048      2.12540      6.08927         0.003516     -0.066695     -0.132816
Cu	      4.14195      8.22169      4.10228         0.353014     -0.016482      0.079051
Cu	      6.29931      6.13383      8.12616         0.148342     -0.030889     -0.106937
O	      6.33163      4.07389      8.22642         0.632281      0.138119     -0.083079
O	      8.40885      6.11725      8.02228        -0.077731     -0.566443      0.233666
O	      6.19289      6.10977     10.09604         0.008909      0.193217      0.077331
O	      8.40739      8.28373     10.18883        -0.176705     -0.069763     -0.094125
O	      2.21823      1.98892      2.01289         0.088601      0.857836      0.127926
O	      4.27547      3.98387      2.02361        -0.839431     -0.125236      0.056077
O	      4.19043      1.95343      4.02393         0.159737      0.030566      0.171664
O	      6.35511      4.09507      3.95930        -0.057974     -0.111337      0.072722
O	      6.27142      2.04775      5.99532        -0.121281     -0.026861      0.044521
O	      8.36949      4.14536      6.17098        -0.014611      0.239014      0.331264
O	      2.03031      4.13534      3.89800        -0.377542      0.075198      0.000317
O	      4.15374      6.24548      4.22351        -0.034363     -0.109608      0.120186
O	      4.14865      4.20167      6.10435        -0.003569     -0.052559      0.105527
O	      6.10365      6.15624      6.20749         0.073660     -0.000190     -0.112281
O	      2.18098      6.15635      6.21330         0.068479     -0.011705      0.017222
O	      4.18268      8.09132      6.17822         0.056170     -0.071697     -0.020437
O	      4.01151      6.30464      8.11983         0.376574     -0.084950     -0.020498
O	      6.07563      8.33515      8.23932        -0.001260     -0.701365      0.113808
