# total energy = -199.44402413 eV
 
CRYSTAL
PRIMVEC
-0.017881 6.283005 6.184206 
6.208814 0.035972 6.130560 
4.145517 4.159086 0.017496 
PRIMCOORD
36 1
Li	      8.28594      2.20184      6.18307        -0.072463      0.003822      0.039648
Li	      6.22820      4.17518      2.17584        -0.042207      0.139309     -0.004144
Li	      4.15402      2.06592      2.13664        -0.091174      0.068805      0.023724
Li	      4.10206      0.14597      4.05015         0.022311     -0.000176     -0.012849
Li	      6.10139      2.12283      4.06426         0.024539     -0.071900      0.120801
Li	      2.12508      4.09950      2.05367         0.073331     -0.077392     -0.067098
Li	      2.18814      2.06919      4.09028        -0.013436     -0.019295     -0.104432
Li	      4.15186      4.07032      4.04998         0.028380      0.010190     -0.126186
Li	      6.11760      6.35082      8.21982         0.000865     -0.089312      0.084320
Mn	      8.23814      6.27971     10.26483         0.108930      0.340972     -0.063580
Mn	      8.21238      8.40657      8.22603         0.603541     -0.006920      0.121947
Fe	      0.10576      2.02036      2.06896        -0.247231      0.043067      0.033833
Co	      6.29278      4.17582      6.08609         0.032830      0.263897     -0.162086
Co	      2.06182      4.20106      6.16451        -0.068872     -0.336365      0.404671
Ni	     10.32475      4.18897      6.15655         0.089013      0.029780      0.030776
Ni	      4.10379      2.08701      6.04378         0.151153      0.006985      0.119799
Ni	      6.20275      4.24739     10.25444        -0.116974     -0.045527     -0.189660
Ni	      4.17216      6.31097      6.19659        -0.206271      0.058171     -0.064695
O	      1.90901      2.09583      2.09178         0.620217     -0.012778      0.071905
O	      4.15115      4.31256      2.03044        -0.070488     -0.474426      0.097048
O	      4.13564      2.12227      4.08850         0.006212      0.012918     -0.194830
O	      6.19976      4.17513      4.32016         0.049974     -0.009574      0.402557
O	      6.13701      2.14534      6.18842         0.182207      0.524086     -0.143532
O	      8.24233      4.24374      6.15073        -0.754296     -0.206724      0.014149
O	      2.03433      4.32420      4.21537         0.100435     -0.012992      0.201012
O	      3.98277      6.31506      4.12665        -0.115730     -0.072584      0.025560
O	      4.05840      4.20525      6.27471         0.372051     -0.067347     -0.055559
O	      6.21007      6.38663      6.17083         0.058498     -1.017226     -0.071668
O	      6.09554      4.09786      8.07671        -0.253486      0.329057     -0.181125
O	      8.35738      6.37334      8.29002        -0.229016      0.128541      0.113609
O	      2.06874      6.17144      6.05936         0.082096      0.764503     -0.251349
O	      4.27638      8.37248      6.20579         0.008493     -0.081595      0.096411
O	      4.12460      6.11523      8.20547        -0.052722     -0.214541      0.243356
O	      6.32904      8.36633      8.11039        -0.159085      0.041842     -0.258482
O	      6.33570      6.26626     10.28842         0.049417      0.147409     -0.188621
O	      8.28381      8.24509     10.15319        -0.171043     -0.096681     -0.105229
