# total energy = -202.66225386 eV
 
CRYSTAL
PRIMVEC
0.009241 6.121415 6.186272 
6.268540 0.006355 6.188960 
4.205261 4.109311 -0.022288 
PRIMCOORD
36 1
Li	      2.13448      8.18231      6.16774        -0.022177     -0.060838      0.172226
Li	      4.22321      2.05371      2.11540         0.006558     -0.025667      0.099444
Li	      6.27931      8.21804     10.19282        -0.140621      0.104311     -0.149151
Li	      2.06480      4.06384      2.12874         0.043447     -0.148014     -0.028710
Li	      2.12372      2.07496      4.11484         0.026416     -0.156179     -0.093116
Li	      4.20179      4.03206      4.10425         0.104523     -0.025101     -0.065041
Li	      6.27690      4.11307      6.18710         0.010884      0.031673     -0.065521
Li	      8.35462      8.21149      8.24816        -0.074478      0.092683     -0.057113
Li	      6.30066      6.15422      8.25203        -0.041929      0.114679     -0.053780
Mn	      0.01958      2.06111      2.07634         0.600155     -0.410539      0.002030
Mn	      8.35088      6.17804      6.17229         0.114449     -0.228548      0.140669
Fe	      4.21036     10.16694      6.14779         0.192007      0.238994      0.350716
Co	      6.28030      4.10743      2.07268        -0.148587      0.135505     -0.352550
Co	      8.32430     10.20406     10.25177        -0.386929      0.705640      0.242214
Co	      4.26468      6.07423      6.21796        -0.312856      0.078038      0.279319
Cu	      6.30798      4.09616     10.27708        -0.193562     -0.046098     -0.000790
Ni	      8.36843      6.17503     10.25637         0.011425      0.085076      0.040830
Ni	      2.12888      4.06047      6.18432         0.087483      0.118953      0.381095
O	      6.31622      3.94343      8.30116        -0.045025      0.129622      0.093118
O	      1.93727      1.92276      2.04041        -0.342790      0.441597      0.064356
O	      4.30472      4.18276      2.01513        -0.080299      0.096055     -0.140780
O	      4.19121      1.92929      4.26920        -0.042881     -0.371815      0.018942
O	      6.32420      4.10058      3.91377         0.715757     -0.086512      0.493258
O	      6.15957      2.01703      6.30603        -0.229163      0.017498      0.054543
O	      8.44856      4.20605      6.14809         0.000218      0.136796     -0.455219
O	      2.02478      4.14796      4.14127        -0.058420     -0.005285      0.079582
O	      4.14464      6.19253      4.03206        -0.076248     -0.087258      0.084560
O	      4.19666      4.01821      6.13829         0.075003      0.192746     -0.160972
O	      6.41718      6.12703      6.23425        -0.195679     -0.030013     -0.011963
O	      8.52257      6.14504      8.15649        -0.061668      0.010719     -0.105094
O	      2.06055      6.14457      6.27393         0.338200     -0.018074     -0.444744
O	      4.22398      8.18066      6.10854         0.080374     -0.544078     -0.190679
O	      4.00451      6.17118      8.25218         0.147068     -0.045405      0.023633
O	      6.26407      8.36669      8.19762        -0.000751     -0.486722     -0.137414
O	      6.31907      6.11567     10.33618        -0.208465      0.092672      0.068003
O	      8.46345      8.29855     10.30687         0.108561     -0.047109     -0.175898
