# total energy = -92.99334452 eV
 
CRYSTAL
PRIMVEC
2.019579 4.184096 2.056441 
4.169989 -4.250464 0.001553 
4.154126 -0.014364 -4.199390 
PRIMCOORD
16 1
Li	      2.16319     -0.00380     -2.11691         0.113579     -0.122480     -0.139589
Li	      2.16696     -2.15352     -0.04726         0.037152     -0.159047     -0.137880
Li	      4.15064      0.02417     -0.00105         0.068335      0.156931      0.025730
Li	      4.18378     -2.08203     -2.09553        -0.025351      0.137486      0.044857
Mn	      0.07465      0.00108     -0.02054        -1.232086     -0.038415      0.461173
Mn	      2.10337      2.10932     -0.05002         0.801028     -0.212476     -0.282067
Ni	      4.13795      2.09161     -2.11992         0.157064     -0.152107      0.277794
Ni	      6.31103     -0.03150     -2.10163        -0.085291     -0.072585      0.132916
O	      6.23626     -0.20826      0.04123        -0.065790     -0.027118     -0.183398
O	      6.28235     -2.10854     -1.98004        -0.289961      0.230501      0.396475
O	      4.01298      2.07051     -0.04401        -0.438921     -0.117574     -0.091967
O	      4.23152     -0.00858     -2.28940         0.290075      0.001158     -0.094387
O	      8.45761     -0.09159     -2.15642        -0.052946      0.021357     -0.055645
O	      4.26776     -2.32739     -0.02011         0.252695      0.222367     -0.222521
O	      6.26703      2.17587     -2.25508        -0.069221     -0.118349     -0.052491
O	      1.99060      0.11904      0.02844         0.539639      0.250351     -0.079001
