# total energy = -202.63971241 eV
 
CRYSTAL
PRIMVEC
-0.000384 6.377014 6.071357 
6.172109 0.007998 6.062971 
4.125392 4.256178 -0.005514 
PRIMCOORD
36 1
Li	      6.15414      6.37586     12.10473        -0.032903      0.024238     -0.013268
Li	      8.26661      8.56486     12.05961        -0.017132      0.019067     -0.042002
Li	      8.22521      4.25741      4.09514         0.052517     -0.023150      0.055890
Li	      4.13538      4.25496      4.10009         0.035907      0.001373     -0.003579
Li	      4.10636      2.23662      6.02018         0.052748     -0.021651     -0.024547
Li	      6.07774      4.20185      6.05184         0.024011     -0.074911     -0.039714
Li	      4.10056      8.46764      4.07042        -0.096592      0.010503      0.019520
Li	      4.13751      6.33670      6.05307        -0.026574      0.005274     -0.025518
Li	      4.15772      4.28101      8.07204        -0.009442      0.004704      0.044847
Mn	      2.08146      6.37602      8.09898         0.006171     -0.031735     -0.035723
Mn	      2.12664      4.26635      6.04067         0.096197      0.178060      0.095796
Fe	      6.12056      2.21282      8.00364         0.065416     -0.159089      0.052471
Co	      4.14830      8.50814      8.06356         0.019503      0.023433      0.064219
Co	      6.18342      2.10269      4.09821        -0.133713      0.172534     -0.036699
Co	      8.22357      4.26816      7.95139         0.010283      0.056941     -0.317885
Cu	      6.15864      6.34175      4.12563        -0.025985      0.032801     -0.020435
Cu	      2.08802      6.40550      4.07628         0.040753      0.104895      0.242860
Cu	      6.11925      6.29979      8.06888         0.042394     -0.068001     -0.113039
O	      8.27254      6.30371      8.16977        -0.097113     -0.138831     -0.363583
O	      6.22649      6.53774     10.00101        -0.253630      0.046410      0.172756
O	      8.09961      8.40283     10.14264         0.128359      0.009661     -0.051616
O	      2.00262      2.02857      2.14194        -0.008406      0.122750     -0.003914
O	      4.18481      4.20834      2.01759        -0.012331     -0.092177      0.055620
O	      4.19063      2.12010      3.88914         0.167728     -0.066289     -0.046589
O	      6.20642      4.07152      3.94338        -0.001444     -0.084601      0.180197
O	      6.13880      2.13137      6.13675         0.031383     -0.028923     -0.103908
O	      8.24444      4.24124      6.18247        -0.005428     -0.060399      0.341974
O	      2.04643      4.37393      4.08356        -0.002379     -0.048484     -0.048102
O	      4.13192      6.38541      3.94782        -0.061469      0.031357      0.170121
O	      3.98683      4.26215      6.07248        -0.115602      0.015788     -0.057135
O	      6.20093      6.57086      6.06088        -0.069933     -0.049218     -0.021779
O	      6.21806      4.18361      8.10142         0.026833      0.193981     -0.029460
O	      2.07427      6.24326      6.11621         0.011111     -0.073339      0.130324
O	      4.24436      8.52228      6.19693         0.042472     -0.038577     -0.006798
O	      4.02413      6.52825      8.09171         0.100138      0.172305     -0.043412
O	      6.22738      8.66887      8.01120         0.016152     -0.166704     -0.177889
