# total energy = -202.12081363 eV
 
CRYSTAL
PRIMVEC
-0.017439 6.199264 6.184539 
6.166264 -0.004393 6.171369 
4.121943 4.135479 -0.014176 
PRIMCOORD
36 1
Li	      8.13252      2.09285      6.28641        -0.082900      0.088857      0.017872
Li	      4.10574      2.07987      2.04487        -0.082578      0.070235      0.096138
Li	      6.07916      2.09751      4.25994         0.010341      0.059429      0.123226
Li	      6.17513      2.04334      8.14650        -0.099135     -0.106446     -0.011411
Li	      8.23930      4.13303      8.11499         0.053922      0.113810     -0.095428
Li	      4.14106      4.07603      4.17605         0.104337     -0.013730     -0.252458
Li	      4.17263      2.09481      6.17959         0.177562     -0.194975      0.029945
Li	      6.08133      4.01024      6.25155         0.232390     -0.266092     -0.070803
Li	      4.12429      6.12518      6.16983        -0.161094      0.156193     -0.003674
Mn	      8.22174      4.15156      4.15017        -0.023261     -0.265425      0.254047
Mn	      6.15604      4.13634     10.25481        -0.294877      0.010010     -0.169970
Fe	      2.09007      2.04656      4.11894         0.004020     -0.350807     -0.500369
Co	      6.08874      4.15311      2.03598         0.741689     -0.076205      0.175364
Co	      8.25537      6.22552     10.26401        -0.184167      0.119114      0.462658
Co	      2.06077      4.15781      6.13544         0.467171     -0.018004      0.030072
Ni	      0.00993      0.03688      0.03356        -0.386596      0.269012      0.363014
Ni	      4.10249      4.09481      8.14149         0.234570     -0.094380      0.367311
Ni	      6.17267      6.21874      8.12084         0.058559     -0.195547      0.332919
O	      2.07115      2.02685      2.19168        -0.231204     -0.469732     -0.107137
O	      4.25720      4.09752      2.08682         0.124439      0.053501      0.116271
O	      4.07846      1.89658      4.12322        -0.060910      0.374578      0.037780
O	      6.30027      4.13696      4.14373        -0.356342      0.093008      0.143918
O	      6.17612      1.90342      6.18215         0.090847      0.746478     -0.045889
O	      8.33167      4.09939      6.03547        -0.408103     -0.018970     -0.076861
O	      1.95724      4.22133      4.17122         0.059106     -0.134235      0.183624
O	      4.06224      6.37722      4.14215         0.087016      0.104097     -0.039835
O	      3.98491      4.14172      6.13676        -0.558583      0.120651     -0.168169
O	      6.12504      6.35973      6.08599        -0.135922      0.274708      0.144372
O	      6.15644      4.18428      8.33414         0.051043     -0.034172      0.045679
O	      8.18542      6.21653      8.41186        -0.018710      0.025370     -0.480721
O	      1.98823      6.12830      6.09794         0.391640     -0.367583     -0.175146
O	      4.20750      8.41174      6.02173         0.375231     -0.509420     -0.037472
O	      4.01953      6.16070      8.38233        -0.417174      0.122884     -0.283735
O	      6.17975      8.28433      8.02612        -0.258994      0.557095     -0.249565
O	      6.11218      6.11757     10.24454         0.320976     -0.126370     -0.180861
O	      8.35149      8.26268     10.27292         0.175690     -0.116937      0.025295
