# total energy = -205.15718419 eV
 
CRYSTAL
PRIMVEC
0.006468 6.283505 6.147431 
6.240970 0.023563 6.130399 
4.161964 4.178760 0.014656 
PRIMCOORD
36 1
Li	      0.07610      6.27908      6.08727         0.016651      0.017638     -0.040403
Li	      2.10015      8.27948      6.10794        -0.006523     -0.104634     -0.018834
Li	      4.19513      8.29659      8.13328         0.026333     -0.059833      0.001667
Li	      8.24371      4.14151      4.07642        -0.010615     -0.033173     -0.006878
Li	      6.31735      8.44382     10.23340         0.000159      0.006158      0.023577
Li	      6.23365      4.20023      6.07334        -0.034433      0.002705      0.002845
Li	      2.08158      4.26737      6.14122         0.015441      0.028973     -0.023185
Li	      4.09171      6.27444      6.23107        -0.021118     -0.017799      0.011918
Li	      4.14480      4.29795      8.21972         0.050324      0.039912     -0.014539
Mn	      0.00743      2.10297      2.05441        -0.245649      0.024196     -0.161932
Mn	      2.10283      4.15727      2.02195         0.017121      0.065136     -0.033769
Fe	      4.16104      2.15615      6.06173         0.052270     -0.080890      0.130822
Co	      4.18919      4.16592      4.10358        -0.068959      0.043138      0.120286
Co	     10.28156      8.46184     10.42098        -0.054307      0.050939      0.182917
Co	      2.08263      6.30093      4.16070        -0.152740     -0.044275     -0.010439
Co	      6.12080      6.57003      8.17766        -0.164243      0.090941     -0.031847
Ni	      2.15865      6.22766      8.12546        -0.080025      0.095913     -0.053717
Ni	      6.24114      6.22027      4.16495        -0.030389      0.101197      0.138988
O	      1.92638      2.04421      2.06591        -0.011393      0.287142     -0.155663
O	      4.13830      4.31676      2.14266        -0.189155     -0.039453     -0.050219
O	      4.11378      2.24300      4.09983         0.114884      0.029543     -0.219577
O	      6.10335      4.21823      4.02447        -0.038391     -0.193835      0.235286
O	      6.11524      2.13794      6.30601         0.322286      0.030245      0.109317
O	      8.33185      4.35815      6.25577        -0.011963     -0.286447      0.073824
O	      2.18375      4.23700      3.98406         0.052535      0.050751     -0.011628
O	      4.10746      6.16560      4.03785        -0.046596     -0.008123      0.021292
O	      4.16802      4.06472      6.00325         0.024860      0.359383     -0.134671
O	      6.38212      6.26449      6.23296        -0.210454     -0.031113      0.094862
O	      6.33887      4.05759      8.33699         0.196648     -0.116712     -0.002844
O	      8.43258      6.33132      8.28371         0.091909     -0.192891      0.071186
O	      2.08194      6.25708      6.06431         0.027760     -0.002377     -0.214330
O	      4.18590      8.36259      6.05240        -0.050483      0.035145     -0.214017
O	      4.21168      6.26811      8.21706         0.244176      0.033407      0.014579
O	      6.24939      8.34982      8.18493         0.000192     -0.131525      0.020673
O	      6.39946      6.25137     10.13515         0.082722     -0.043528      0.030587
O	      8.35777      8.22518     10.25445         0.091165     -0.005856      0.113869
