# total energy = -208.07338532 eV
 
CRYSTAL
PRIMVEC
-0.028140 6.180635 6.171969 
6.305787 -0.048945 6.192166 
4.170827 4.100210 0.000940 
PRIMCOORD
36 1
Li	      6.21359     10.14584      8.30869        -0.057285     -0.020836      0.073996
Li	      4.20464      8.21213      8.25963         0.084951     -0.004197      0.061971
Li	      6.24384      8.20162     10.25075         0.011690     -0.009149     -0.118022
Li	      4.19195      6.15061      2.10546        -0.017029     -0.021566      0.149551
Li	      2.11427      2.04474      4.09957         0.097556     -0.033574     -0.035771
Li	      4.15651      4.09354      4.07026        -0.040809      0.088232      0.006346
Li	      0.00341      4.12290      4.13454        -0.027457     -0.077288     -0.012661
Li	      6.30805      8.15265      6.19763         0.045111      0.010190     -0.004672
Li	      4.11512      4.13559      8.21813        -0.103270     -0.105348      0.043795
Mn	      2.07351      2.05155      0.02672        -0.137920     -0.224049     -0.206123
Mn	      2.10933      4.09344      2.10211         0.076908      0.224271      0.449246
Fe	      6.14269      4.11382      6.14325         0.332259     -0.288125     -0.226585
Co	      4.16409      4.10710      0.02930        -0.087503     -0.248566     -0.033212
Co	      4.12616      6.14620     10.18929         0.121030     -0.077882      0.121212
Co	      4.20575      2.06254      6.11271        -0.061291      0.018237     -0.033377
Co	      2.12233      6.17221      4.09327        -0.846506      0.201415      0.376310
Co	      6.23998      6.26310      8.23817         0.578675     -1.001360      0.180362
Cu	      4.16311      6.16665      6.21973        -0.125050      0.260285     -0.357121
O	      6.29686      8.06824      8.22106        -0.247556     -0.167236     -0.084753
O	      2.04547      2.17900      1.96473        -0.030139      0.112313     -0.030363
O	      4.03665      4.11150      1.97365        -0.073763      0.020620      0.046620
O	      4.24432      1.82318      4.16801         0.010277      0.182039      0.199412
O	      6.40760      4.07355      4.20818        -0.116039     -0.017002     -0.178072
O	      6.37317      1.97815      6.20746         0.074984      0.874002      0.071218
O	      8.48550      3.98852      6.26623        -0.689768     -0.020384      0.079958
O	      2.09585      4.12746      3.96626        -0.068453     -0.143675     -0.227333
O	      3.94293      6.19978      4.27665         0.589597     -0.133590     -0.182229
O	      4.24328      4.08248      6.14444        -0.098393     -0.072622      0.031085
O	      6.34467      6.09031      6.19461        -0.130439      0.229794     -0.043795
O	      6.46318      4.16792      8.14309        -0.214747      0.549447      0.142349
O	      8.38312      6.01063      8.25164        -0.318133      0.134415     -0.454893
O	      1.86022      6.29101      6.19172         0.942700      0.267829     -0.048279
O	      3.97200      8.32229      6.19374        -0.082850     -0.836320      0.068985
O	      4.23998      6.10579      8.16623         0.543030      0.353534      0.165990
O	      6.34998      6.12462     10.38898         0.023152     -0.012493     -0.157317
O	      8.35852      8.27094     10.44044         0.042482     -0.011362      0.166173
