# total energy = -210.57370516 eV
 
CRYSTAL
PRIMVEC
0.001573 6.078124 6.336190 
6.177145 0.013373 6.325545 
4.131125 4.057452 -0.004629 
PRIMCOORD
36 1
Li	      0.19973      6.09361      6.27965         0.011310      0.010824     -0.019087
Li	      2.10127      7.96792      6.37783        -0.015571      0.010284     -0.013755
Li	      2.05412      6.08604      8.28658         0.006528     -0.027927      0.018312
Li	      0.06536      2.00433      2.13058         0.019685     -0.001970      0.009339
Li	      2.00699      2.08595      4.20536        -0.059087      0.051825     -0.016657
Li	      2.07671      6.09387      4.47791         0.006923      0.052589     -0.026227
Li	      2.02106      4.16784      6.29773         0.013867     -0.045049     -0.034420
Li	      3.98320      6.11837      6.27250         0.025688      0.026699     -0.105183
Li	      6.19306      6.09576      8.42730         0.053425     -0.019904      0.057761
Mn	      4.06854      4.15438      4.20092        -0.181296      0.097535      0.034921
Mn	      6.17572      4.07587      6.33497         0.208669     -0.018915      0.045099
Fe	      4.15453      8.06377      8.25524        -0.025962      0.088274      0.095682
Co	      8.18216      8.06738      8.44022        -0.073658     -0.000706      0.138570
Co	      4.14608      6.06964     10.52597         0.014094     -0.188423      0.119251
Co	      6.18480      8.08178     10.58454         0.051617     -0.147452     -0.039372
Co	      8.24784      4.09755      8.45213        -0.073116      0.044690     -0.019659
Co	      4.10665      2.01464      6.29126         0.037590     -0.122952      0.047071
Co	      4.15689      8.09200      4.33221        -0.208440      0.131230      0.323505
O	      2.08566      6.07677      6.40382        -0.009256     -0.033815      0.026512
O	      2.18190      2.20334      2.08442        -0.113872      0.021990      0.028701
O	      4.08447      4.02306      2.28635         0.021791      0.102350      0.167129
O	      4.23496      2.07102      4.31485        -0.010360      0.317913      0.030343
O	      6.10769      3.96149      4.35846        -0.126520      0.016410      0.050906
O	      6.07308      2.10634      6.21229        -0.069792      0.097002     -0.119761
O	      8.10981      4.14389      6.18548        -0.092246      0.123274      0.037632
O	      2.13655      4.09595      4.18644         0.390467     -0.048537     -0.016772
O	      4.14956      6.05304      4.21151         0.100731     -0.518705     -0.065874
O	      4.21465      3.97408      6.26249         0.017834     -0.014975     -0.099655
O	      6.31056      5.95868      6.28493         0.019711     -0.087916      0.008753
O	      6.20480      4.04194      8.28727         0.037673      0.028781     -0.328836
O	      8.26366      6.02288      8.18634         0.011373     -0.071395     -0.124830
O	      4.18474      8.10050      6.37285        -0.049078      0.012951     -0.197474
O	      4.05789      6.10916      8.64207         0.028650     -0.047642     -0.090583
O	      6.13464      8.09277      8.65375         0.086597      0.012859      0.017706
O	      6.10762      6.12611     10.58085        -0.039831      0.214122      0.019811
O	      8.13283      8.15335     10.50989        -0.016137     -0.065318      0.041139
