# total energy = -193.97743751 eV
 
CRYSTAL
PRIMVEC
0.022036 6.155100 6.370470 
6.098559 0.024168 6.368504 
4.066180 4.102163 0.014993 
PRIMCOORD
36 1
Li	      2.03672      2.00930      0.12725         0.019042     -0.001703     -0.038707
Li	      2.05878      6.20583      8.41170         0.048117      0.034723     -0.019214
Li	      4.06000      8.16177      8.43430        -0.039239     -0.022065     -0.030660
Li	      2.04692      4.08326      2.14014         0.041966      0.005445      0.057726
Li	      1.98713      2.10002      4.07775         0.021702     -0.013457      0.008174
Li	      6.10885      4.12550      6.45160        -0.021373      0.031144     -0.050120
Li	      2.10672      6.05066      4.30503        -0.028479      0.028083      0.042211
Li	      4.02885      6.14809      6.50307         0.021553      0.013981     -0.028178
Li	      4.09290      4.11323      8.44392         0.008369      0.027448      0.018677
Mn	      4.02521      0.05650      4.21000         0.028046     -0.153884     -0.341683
Mn	      6.13794      8.24592     10.55468         0.200264     -0.061965     -0.209788
Fe	      4.15449      8.06659      4.29172        -0.177915      0.160345      0.178612
Cu	      6.11490      2.10501      8.49587        -0.119255      0.109526      0.155155
Ni	      4.08189      4.10070      0.08936         0.004433     -0.073852     -0.008940
Ni	      4.03075      4.17019      4.19725        -0.070914     -0.035183      0.045973
Ni	      4.06504      2.10109      6.36012        -0.071040      0.044720     -0.047533
Ni	      6.12911      8.20424      6.39197        -0.135073     -0.004100      0.101640
Ni	      6.16640      6.13569      8.49583        -0.035438     -0.027999      0.063223
O	      8.26542      6.19266      8.41404         0.046552     -0.023821      0.093246
O	      1.87326      2.07890      2.05986         0.135902      0.024640      0.052583
O	      4.06919      4.29151      2.13971        -0.035435     -0.045960     -0.027243
O	      4.15600      2.02832      4.18054         0.031450     -0.091269     -0.079998
O	      6.16886      4.01327      4.22420         0.045486     -0.091250     -0.015362
O	      5.97840      2.05773      6.11187         0.200591      0.148889      0.242919
O	      8.14187      4.28544      6.18563        -0.089677     -0.053797      0.016680
O	      1.99677      4.08188      4.30363         0.155694      0.011607     -0.076092
O	      4.03478      6.17643      4.40434         0.068702     -0.077522     -0.282640
O	      3.98823      4.01546      6.26522         0.155172      0.007650      0.108832
O	      6.22738      6.27846      6.49715        -0.103582     -0.086799     -0.111820
O	      6.10571      4.07527      8.63384        -0.044584     -0.260421     -0.114380
O	      2.01615      5.98058      6.38366         0.083050      0.125106      0.061477
O	      4.18589      8.22892      6.35242        -0.096974     -0.058893     -0.000969
O	      4.13267      6.15351      8.68682        -0.053483     -0.017040      0.102652
O	      6.15709      8.13737      8.64482         0.025094      0.296652      0.146846
O	      6.02942      6.22574     10.60695        -0.064294      0.087358      0.055253
O	      8.10589      8.37913     10.73563        -0.154427      0.043663     -0.068549
