# total energy = -89.74763875 eV
 
CRYSTAL
PRIMVEC
0.104825 2.186362 1.963630 
7.157714 6.888828 -3.919330 
-4.558467 2.031470 -2.023339 
PRIMCOORD
16 1
Li	     -1.85490      4.64135     -2.28994         0.027460      0.054134     -0.056835
Li	      0.34866      6.41400     -2.20289         0.029195     -0.057906      0.110836
Li	      2.15969      8.34531     -2.27183         0.064170     -0.093874      0.054755
Li	      2.09780      4.33022     -2.15078        -0.143600     -0.007296      0.056080
Mn	     -4.27503      2.31717     -1.69248         0.058597      0.004876     -0.014625
Mn	     -1.96875      2.36755      0.32766        -0.136694      0.076650     -0.087079
Ni	      0.24811      4.57676     -0.10986        -0.019034     -0.031465      0.039202
Ni	      4.18800      6.15730     -2.11946         0.121849      0.443357     -0.182152
O	      5.19154      7.30886     -3.62700        -0.176624     -0.339379      0.382053
O	      0.13907      6.37419     -4.36008         0.083500      0.091226     -0.142209
O	      3.24118      9.44047     -3.68782         0.058917     -0.032698      0.043199
O	     -1.95853      2.13829     -1.62241        -0.049050     -0.151531      0.175433
O	      0.02360      4.32749     -2.02637        -0.077356      0.174017     -0.186509
O	      2.37535      6.44233     -2.35382        -0.017755     -0.073008     -0.225932
O	      0.01598      2.27544      0.33006        -0.126586     -0.016167     -0.000851
O	      2.13416      4.41997     -0.04637         0.303012     -0.040934      0.034634
