# total energy = -193.20189658 eV
 
CRYSTAL
PRIMVEC
-0.049559 6.192290 6.183619 
6.238942 -0.052857 6.186767 
4.131442 4.102285 -0.007356 
PRIMCOORD
36 1
Li	      6.22312      0.04415      6.21672        -0.049175      0.017825     -0.022096
Li	      8.22080      2.01793      6.17104        -0.096034      0.107121     -0.045716
Li	     10.28029      6.13198      8.20420        -0.016687     -0.003876     -0.028587
Li	      4.09192      4.13988      4.14143        -0.011088     -0.047890     -0.035268
Li	      8.32866      6.13565      6.26029         0.012803      0.013074     -0.006574
Li	      6.18344      4.02218      6.32714         0.092095     -0.051988      0.026112
Li	      8.25142      6.16296     10.20819        -0.064186      0.042716     -0.097138
Li	      4.19801      4.02887      8.19200         0.013171     -0.045692      0.066215
Li	      6.32267      6.05538      8.22411         0.114796     -0.009967      0.002556
Mn	      6.15376      4.10233      2.02325        -0.142020     -0.178953      0.183239
Mn	      6.23449      1.98446      4.17848         0.099143     -0.127849     -0.068289
Fe	      8.32644      4.04267      4.25391        -0.024573      0.021942     -0.063450
Cu	      6.15147      6.15980      4.15143         0.320712     -0.147632     -0.067932
Cu	      2.08258      4.10255      6.17624         0.098903     -0.051165      0.081899
Ni	      6.19707      4.06440     10.27272        -0.191576      0.152263      0.007744
Ni	      4.12083      2.05698      2.02996        -0.008486      0.001453      0.076887
Ni	      8.27349      4.12001      8.14246         0.071108     -0.124814      0.258216
Ni	      4.11732      6.14592      6.18868         0.069086     -0.495665      0.140475
O	      4.04928      4.28053      6.19379        -0.181997     -0.698384      0.015927
O	      6.17700      6.22579      6.09585         0.005908      0.019487      0.143382
O	      8.31524      6.04152      8.24866         0.032859      0.107325      0.004108
O	      2.07321      1.97059      2.14782        -0.135177     -0.078917     -0.046621
O	      4.22736      4.07535      2.03208         0.111540      0.170061      0.022246
O	      4.24870      1.95845      4.09677        -0.042652      0.155694      0.032034
O	      6.24844      4.02821      3.99745        -0.067973      0.016451     -0.125804
O	      6.21486      2.04514      5.98715         0.012561      0.007173     -0.002990
O	      8.29665      4.03837      6.13014        -0.006571     -0.014441      0.298462
O	      2.03210      4.01745      4.16966         0.042698      0.256784     -0.637611
O	      4.18805      6.18831      4.24089        -0.178772     -0.116185     -0.302812
O	      6.29294      4.07183      8.29593        -0.064251     -0.045735     -0.040484
O	      2.05387      6.11983      6.31330        -0.122217     -0.025070     -0.026971
O	      4.17806      8.04614      6.15938         0.266015      1.059524     -0.068601
O	      3.93778      6.20586      8.24485        -0.077597     -0.043683      0.042379
O	      6.13230      8.33896      8.26755         0.044872      0.237618      0.310135
O	      6.13176      6.24442     10.27828         0.140174      0.102002     -0.034789
O	      8.15071      8.25177     10.27851        -0.067411     -0.180608      0.009717
