# total energy = -193.38241040 eV
 
CRYSTAL
PRIMVEC
0.014741 6.048591 6.263265 
6.166763 0.012500 6.265524 
4.143269 4.066472 -0.023987 
PRIMCOORD
36 1
Li	      2.08012      6.04864      8.31823        -0.041712      0.065395      0.001333
Li	      6.18863      2.03722      4.17556        -0.034681     -0.001784      0.073397
Li	      6.12838      2.04628      8.31023         0.007691      0.001682      0.033734
Li	      6.18806      6.08230      4.20810        -0.012791      0.146861      0.196655
Li	      8.23324      6.12099      6.32218        -0.148365      0.089500      0.015888
Li	      6.16831      4.05786      6.26397        -0.030663      0.058463     -0.043440
Li	      8.23764      6.08554     10.41518         0.043431     -0.024266     -0.055549
Li	      4.15605      6.03988      6.27721         0.160345     -0.010429     -0.042386
Li	      6.22028      6.09131      8.29986        -0.041305     -0.090819     -0.109359
Mn	      4.21422      4.12307      4.19009         0.140116     -0.134456     -0.193674
Mn	      0.03800      4.00095      4.16613         0.210817     -0.695599     -0.028373
Fe	      8.15940      4.11794      4.13382        -0.026746      0.273452      0.376014
Cu	      2.07007      8.02547      6.27896         0.057685      0.059584     -0.164375
Cu	      4.17651      8.05763      8.31171         0.119985     -0.072265      0.322857
Cu	      8.22666      8.02239      8.26683         0.167114      0.503903      0.193716
Ni	      6.17341      0.04421      6.27785        -0.084395      0.142481      0.111757
Ni	      8.20905      4.13719      8.31285        -0.044905     -0.207512      0.121123
Ni	      6.24545      8.09602      6.27091         0.115665      0.063184     -0.337347
O	      8.25462      6.11887      8.30905        -0.006731     -0.005782      0.020668
O	      1.99845      6.03017      6.25708         0.192527      0.044458      0.052180
O	      6.22436      8.08210      8.23811         0.060464      0.042191      0.170881
O	      2.17226      2.09894      1.95406        -0.132898     -0.215807     -0.235686
O	      4.09599      3.98377      2.19085         0.137592      0.393391     -0.074701
O	      4.15420      2.09277      4.06655         0.101116     -0.009168      0.238600
O	      6.18959      4.08190      4.18532        -0.241366     -0.017808     -0.066293
O	      6.30460      1.98972      6.26698        -0.111487      0.115535     -0.067905
O	      8.26630      3.99784      6.19154        -0.054827      0.288363      0.067208
O	      1.98845      4.05142      4.18906         0.055596      0.097404     -0.050409
O	      4.15909      6.07175      4.14712        -0.088127     -0.206186     -0.010057
O	      4.11271      4.05625      6.10034         0.160031      0.052038      0.038530
O	      6.20560      6.23167      6.25251        -0.038556     -0.538982      0.028642
O	      6.14602      4.03527      8.56221        -0.099572      0.038528     -0.339387
O	      4.14138      8.11989      6.17607        -0.202280     -0.302368      0.004662
O	      4.09929      6.06150      8.49708        -0.014141     -0.320266     -0.521418
O	      6.05107      5.86919     10.49334         0.367887      0.918187     -0.087781
O	      8.40686      8.13397     10.46303        -0.642512     -0.541104      0.360293
