# total energy = -195.16207300 eV
 
CRYSTAL
PRIMVEC
0.000543 6.228325 6.238500 
6.186752 0.003632 6.235134 
4.134247 4.159735 -0.007221 
PRIMCOORD
36 1
Li	     10.25454      4.22346      6.22976        -0.004882      0.043808     -0.035527
Li	      8.18111      4.21650      8.23944        -0.001213     -0.058619      0.013847
Li	      6.16020      6.31618      4.22039        -0.058384      0.077841      0.002044
Li	      4.07288      4.17979      4.19621        -0.029718     -0.025482      0.036462
Li	      8.24914      6.24766      6.28039         0.058242      0.003916     -0.022021
Li	      6.23549      4.14575      6.34267        -0.031873     -0.073193      0.037043
Li	      0.07335      4.07157      4.08825         0.081745     -0.059162     -0.004262
Li	      4.21811      4.04407      8.24982        -0.006520      0.017525     -0.007216
Li	      6.29495      6.12830      8.27186        -0.031579     -0.060110      0.035775
Mn	      2.05114      0.03442      2.05432        -0.006026     -0.178531      0.256662
Mn	      4.16189      6.19991      6.20796         0.080319     -0.065941     -0.144558
Fe	      4.20392      6.25281     10.43975        -0.199153     -0.201783     -0.097540
Cu	      8.23685      2.15753      6.21619         0.364220      0.019904      0.099931
Cu	      6.18455      2.06833      4.16115         0.050886      0.115343      0.191291
Cu	     10.27761      6.24916      8.27412         0.037631     -0.144598      0.305340
Cu	      6.21257      8.26336      6.20451        -0.402462      0.000756      0.123706
Ni	      4.10915      2.14077      2.09614         0.038795      0.095879      0.056605
Ni	      8.22392      6.18466     10.35814        -0.005280      0.029349     -0.061617
O	      6.20321      3.93369      8.33483        -0.113582      0.205179      0.045896
O	      8.35372      6.18525      8.36023         0.068372      0.057245     -0.283217
O	      4.15396      8.19807      6.29175         0.099222      0.028231     -0.223913
O	      8.16094      8.33570     10.46668         0.035581     -0.011051     -0.299390
O	      2.05648      1.97509      2.04735        -0.293937      0.040148      0.158055
O	      4.28256      4.24959      2.07141        -0.039635      0.192045     -0.070025
O	      4.22215      2.00347      4.11583        -0.104088      0.263836      0.106944
O	      6.29652      4.08191      3.95668        -0.181845     -0.004915     -0.156568
O	      6.26598      2.11252      6.26082        -0.470789     -0.087009     -0.437942
O	      8.27876      4.09749      6.13457         0.022382      0.016557      0.191943
O	      2.04522      4.19351      4.36549        -0.078921     -0.194965     -0.560422
O	      4.03835      6.24184      4.33139         0.430710     -0.042269      0.232459
O	      3.98872      4.31157      6.23722         0.480519      0.035830      0.119963
O	      6.01716      6.16745      6.27256         0.015713      0.090104      0.035708
O	      2.16036      6.39195      6.30827        -0.111563     -0.155215      0.161367
O	      4.00067      6.26920      8.26538         0.039665     -0.062466     -0.101374
O	      6.13905      8.49757      8.11962         0.122266      0.031344      0.365997
O	      6.16213      6.31084     10.31398         0.145183      0.060467     -0.071446
