# total energy = -194.26858360 eV
 
CRYSTAL
PRIMVEC
0.023807 6.454886 6.083709 
6.195515 0.058477 6.048679 
4.165697 4.314628 0.003277 
PRIMCOORD
36 1
Li	      6.16241      4.38538      2.05266        -0.009169      0.017839      0.026779
Li	      4.07119      2.40236      2.06503         0.032916      0.033692      0.052879
Li	      4.20229      6.45302      2.08085         0.040591      0.062389     -0.038992
Li	      2.15164      4.26204      2.07351        -0.045929      0.006216      0.067504
Li	      2.03183      2.21186      3.95579        -0.034988      0.034712     -0.060663
Li	      4.16889      4.35621      3.94431        -0.010856      0.008273      0.057591
Li	      6.20342      4.34999      6.08011        -0.085756      0.038869      0.053247
Li	      0.06510      4.21128      3.97852         0.057557      0.037864     -0.102336
Li	      6.20604      6.36546      8.03212         0.044416     -0.046574      0.013348
Mn	      6.19488      2.21537      4.01112         0.089308      0.039871     -0.436033
Mn	      2.15078      6.41592      4.04884        -0.061302     -0.337416     -0.319521
Fe	      2.13090      2.27368      0.16221        -0.123342     -0.019797     -0.286923
Cu	      4.04565      0.11607      3.94938        -0.028678      0.187327     -0.186211
Cu	      6.21917      8.58538      6.08555         0.040175      0.001909     -0.090806
Cu	      4.22584      6.48462      6.09692         0.134692     -0.040447      0.044343
Cu	      8.33819      8.63204      8.09586         0.152921     -0.194470     -0.035778
Cu	      4.17475      4.34065      0.06283         0.100582      0.042512     -0.408395
Ni	      8.26618      6.45829      6.10266        -0.055941     -0.058446     -0.019956
O	      6.02493      4.33718      8.04956         0.310789     -0.047813      0.037225
O	      4.20100      8.80667      6.10398        -0.069388      0.141746      0.052396
O	      4.19518      6.28776      8.09586        -0.141328      0.141993     -0.021608
O	      6.38886      8.61450      8.14541        -0.196179     -0.031311      0.335228
O	      2.07007      2.20297      1.98307         0.045711     -0.048833      0.342666
O	      4.15961      4.36167      1.87618         0.007862      0.022181      0.313085
O	      4.33435      2.23993      4.03192        -0.050733     -0.121026     -0.059161
O	      6.27872      4.10330      4.02979        -0.009813     -0.084272     -0.023060
O	      6.25220      2.13319      5.94414         0.023407     -0.270442      0.220711
O	      8.23886      4.34662      5.93293        -0.137324      0.043678     -0.009196
O	      2.07241      4.51350      4.11420        -0.000213      0.111355     -0.197872
O	      4.03943      6.44941      4.13667         0.083140      0.058946      0.090481
O	      4.01904      4.15923      6.15678         0.081068      0.165500     -0.142911
O	      6.18938      6.61266      5.98300        -0.382184     -0.256169      0.044036
O	      8.28273      6.54427      8.19411        -0.021037      0.072094      0.249861
O	      2.23533      6.49500      6.00081         0.201579      0.222896      0.210728
O	      6.30472      6.65919     10.23717         0.056992     -0.106210      0.010682
O	      8.22489      8.44896     10.15584        -0.039547      0.171365      0.216633
