# total energy = -193.97430488 eV
 
CRYSTAL
PRIMVEC
0.008413 6.115550 6.290401 
6.131754 0.021250 6.277479 
4.104162 4.084168 -0.001864 
PRIMCOORD
36 1
Li	      0.08191      6.07795      6.29643        -0.052381      0.016384      0.013849
Li	      2.10502      8.07451      6.31450         0.026470     -0.017577      0.062523
Li	      2.03804      6.16771      8.28427         0.004384      0.008814      0.022558
Li	      4.08830      8.17842      8.28850        -0.025014      0.003851     -0.038193
Li	      4.10575      6.07166     10.41679        -0.045148      0.053807     -0.004336
Li	      4.16192      6.09122      2.16114        -0.066091      0.024954      0.001453
Li	      2.07193      6.15072      4.32834        -0.009904     -0.006418     -0.011114
Li	      4.01089      6.18379      6.27369        -0.034808     -0.018096      0.033264
Li	      8.19429      8.19826      8.47204         0.007986     -0.048858      0.043550
Mn	      6.20516      8.18283     10.46860        -0.046913     -0.062443     -0.046082
Mn	      2.05498      4.05673      2.11284         0.163152      0.033574     -0.126619
Fe	      6.07405      6.15219      8.42386         0.482067      0.020732     -0.048399
Ni	      4.02083      8.12843      4.25831        -0.073930     -0.010791     -0.031640
Ni	      2.06571      1.99760      4.10200         0.083744     -0.058896     -0.010396
Ni	      4.07854      4.12581      4.15962         0.050697     -0.031650     -0.092577
Ni	      4.11068      2.04746      6.26751         0.064164     -0.061832      0.022885
Ni	      6.12213      4.09722      6.27721         0.035956     -0.012007      0.029168
Ni	      2.03357      4.12481      6.28716         0.125985     -0.136299      0.061667
O	      2.05462      5.96641      6.35332        -0.017793      0.302782     -0.041640
O	      2.05965      2.16380      2.07006        -0.076450      0.117122     -0.118284
O	      3.93368      4.14385      2.22841        -0.029069     -0.005330     -0.190267
O	      4.17990      2.17987      4.17894         0.053882     -0.211355     -0.085893
O	      6.16578      4.03252      4.21434         0.073872     -0.161077     -0.139171
O	      6.02165      2.07400      6.13260         0.076360     -0.084998     -0.012667
O	      8.16043      4.20795      6.45789         0.126192     -0.074760      0.051177
O	      1.98007      4.03159      4.06975         0.045795      0.127868     -0.083112
O	      4.16781      6.04112      4.20070        -0.151615      0.130059      0.044290
O	      4.04019      3.98305      6.13094        -0.023133      0.134272      0.155571
O	      6.29570      6.19516      6.26244        -0.119754      0.034653      0.090380
O	      6.19073      4.15001      8.37800        -0.032231     -0.074648      0.098353
O	      8.02149      6.04324      8.35984         0.057406      0.038375      0.090057
O	      4.25195      8.17525      6.21622        -0.148337      0.006982      0.144873
O	      4.31931      6.12042      8.32376        -0.399210     -0.073225     -0.015366
O	      6.19792      8.10908      8.49758         0.005975      0.079114      0.053691
O	      6.10246      6.23575     10.41032        -0.011053      0.010793      0.065365
O	      8.10463      8.17363     10.55189        -0.121253      0.006125      0.011085
