# total energy = -198.62988646 eV
 
CRYSTAL
PRIMVEC
0.044734 6.058468 6.613345 
6.150675 -0.019835 6.680388 
4.092615 4.074677 -0.005448 
PRIMCOORD
36 1
Li	      6.15028      6.04195     13.12930         0.053945     -0.017006     -0.093411
Li	      8.33134     10.02350     11.26290         0.020004      0.061456      0.045560
Li	      8.11825      4.10073      8.75976         0.091600     -0.069338     -0.064975
Li	      8.15935      6.00712      6.84121         0.004094     -0.030544     -0.055390
Li	      6.21455      4.02591      6.78221        -0.003429      0.022729     -0.053612
Li	      6.12843      4.12130     10.86609         0.048688      0.012013      0.028275
Li	      8.14581      6.06804     10.90628         0.008830     -0.070542     -0.002218
Li	      2.09790      4.02555      6.58968        -0.045853      0.026863     -0.017193
Li	      6.24784      5.94576      9.00425        -0.101737      0.060865      0.074307
Mn	      4.08214      2.04304      2.24474        -0.032054     -0.070525     -0.107544
Mn	      6.15107      6.10249      4.51604         0.074175      0.114047      0.104557
Fe	      6.31708      7.95724     11.11656        -0.291234      0.029367     -0.020872
Fe	      4.05953      4.09925      4.55088        -0.042643     -0.074829      0.107961
Cu	      6.13895      4.06538      2.22388         0.051158      0.077389     -0.145384
Cu	      6.12954      2.00725      8.83924         0.072601     -0.111996      0.114402
Cu	      4.14871      6.08291      6.64338         0.227810      0.067876     -0.085013
Cu	      4.14864      3.98986      8.83143        -0.220236      0.235899      0.106732
Cu	      8.20931      2.06505      6.65584         0.066034     -0.039838      0.047991
O	      8.29718      6.11103      8.78901        -0.051145     -0.130629      0.012940
O	      2.15301      6.24688      6.75687        -0.141352      0.032907      0.143766
O	      4.10017      6.05749      8.68830        -0.042366     -0.284094      0.149970
O	      8.19778      8.09044     10.92399         0.180722      0.031920     -0.367814
O	      2.03460      1.98736      2.51323        -0.354510      0.016560      0.133768
O	      4.14690      4.08271      2.37590         0.004294      0.382657      0.076899
O	      4.05580      2.04040      4.26253        -0.025150     -0.010604      0.067492
O	      6.09686      4.11380      4.36985        -0.014462     -0.032061     -0.094980
O	      6.33881      2.01191      6.48219        -0.186460      0.016132      0.020542
O	      8.22026      3.90793      6.70418         0.025885      0.117743     -0.018956
O	      2.10349      3.93762      4.45288        -0.009234     -0.057323      0.023952
O	      4.22041      6.10617      4.60030        -0.002218     -0.031635     -0.255797
O	      4.09615      4.11232      6.51144         0.025134     -0.200737      0.171629
O	      6.15133      6.08384      6.40047         0.079829      0.003833     -0.134213
O	      6.08141      3.93162      8.82237         0.204575      0.004608     -0.034729
O	      4.00057      8.10554      6.92353        -0.005845      0.026152      0.020757
O	      6.12985      8.14562      8.87245         0.308425     -0.025281      0.147757
O	      6.18685      6.09774     11.01988         0.022126     -0.084035     -0.047156
