# total energy = -214.61732173 eV
 
CRYSTAL
PRIMVEC
0.034462 6.147662 6.256775 
6.301338 0.021696 6.270272 
4.219076 4.125919 -0.003851 
PRIMCOORD
36 1
Li	      2.15968      8.16280      6.28414        -0.008179     -0.051921      0.042547
Li	      2.18958      6.15822      8.27524        -0.006905      0.000438     -0.010294
Li	      4.27491      6.10934     10.40179         0.048506     -0.034709     -0.055584
Li	      0.04417      2.08564      2.10627        -0.062413      0.011966      0.042273
Li	      6.38440      4.12626      6.28892         0.030845      0.026585      0.061303
Li	      4.18652      8.15626      4.17077        -0.034213     -0.072121     -0.077828
Li	      2.15836      6.21227      4.21405         0.007560      0.010475     -0.070142
Li	      4.17779      6.20546      6.23831        -0.045901     -0.011067     -0.010071
Li	      6.30923      6.15464      8.37928         0.112889     -0.099293      0.012456
Mn	      4.33196      4.17145      8.35656         0.254860     -0.286356      0.127924
Cr	      4.23501      8.13746      8.33994        -0.486095      0.184616      0.110237
Cr	      8.43424      6.17938      6.25723         0.011356     -0.337648      0.514049
Fe	      6.42191      8.19176     10.45829         0.078998      0.157686     -0.127752
Fe	      4.24916      4.24597      4.15131        -0.100652     -0.120573     -0.141968
Fe	      2.05239      4.16510      6.23474         0.116748     -0.092879     -0.009624
Co	      8.33528      4.11919      8.36659        -0.137497      0.455372     -0.047847
Ni	      0.03923      6.13629      6.24841        -0.036234      0.061186      0.059634
Ni	      6.29944      6.13493      4.17899        -0.007972     -0.008737     -0.074444
O	      2.17122      2.13631      2.12809         0.360062     -0.189325     -0.014747
O	      4.08481      4.02256      2.13469         0.210116     -0.227525     -0.009403
O	      4.22524      2.10314      4.17376         0.073205      0.010198     -0.033352
O	      6.22722      4.02093      4.18610         0.076050      0.041254      0.001298
O	      6.24521      2.06235      6.14368        -0.069688      0.107643      0.016695
O	      8.42835      4.19770      6.41151         0.061780     -0.005815      0.204647
O	      2.17140      4.10578      4.15885        -0.018375     -0.080516     -0.157842
O	      4.27963      6.10464      4.17480        -0.051656      0.154504      0.098966
O	      4.18130      4.07216      6.33565        -0.068767      0.036061     -0.102182
O	      6.45248      6.27833      6.20008         0.060610      0.092387      0.026644
O	      6.30576      4.13822      8.36188        -0.205624     -0.036672     -0.014789
O	      8.47384      6.24801      8.24958         0.002632      0.211805     -0.235161
O	      2.08270      6.06479      6.26207         0.039504      0.039150      0.023717
O	      4.28572      8.20817      6.36064        -0.009007     -0.075033      0.008727
O	      4.21881      6.09036      8.33060        -0.021358      0.256769     -0.014874
O	      6.30694      8.21064      8.37283        -0.148313      0.013661     -0.101694
O	      6.33068      6.35120     10.46115        -0.055258     -0.181041     -0.005471
O	      8.40532      8.25801     10.25626         0.028388      0.039476     -0.036047
