# total energy = -92.31247582 eV
 
CRYSTAL
PRIMVEC
2.049572 4.246236 2.086983 
4.231919 -4.313590 0.001576 
4.215821 -0.014577 -4.261757 
PRIMCOORD
16 1
Li	      2.25836      0.05916     -2.14925         0.255745     -0.306594     -0.345394
Li	      2.26224     -2.15490     -0.01768         0.079360     -0.364990     -0.299489
Li	      4.27484      0.02490     -0.00108         0.163891      0.343195      0.074575
Li	      4.30897     -2.14434     -2.15824        -0.071939      0.292886      0.079003
Mn	      0.23278     -0.00010     -0.05343        -3.360035     -0.144781      1.058704
Mn	      2.16630      2.17244     -0.05152         1.757588     -0.391786     -0.492981
Ni	      4.26177      2.15420     -2.18336         0.353693     -0.285806      0.600137
Ni	      6.49988     -0.03245     -2.16453        -0.232681     -0.208413      0.255386
O	      6.42287     -0.21449      0.04246        -0.129696      0.005804     -0.548865
O	      6.47034     -2.17164     -2.03929        -0.505123      0.682072      0.742862
O	      4.13307      2.13247     -0.04533        -0.820073     -0.273480     -0.363040
O	      4.35814     -0.00884     -2.35791         0.816137      0.103105     -0.156637
O	      8.71070     -0.09433     -2.22095        -0.430117     -0.122377     -0.138740
O	      4.39547     -2.39703     -0.02071         0.536704      0.551509     -0.350243
O	      6.45456      2.24098     -2.32256        -0.253484     -0.385308     -0.082829
O	      2.05017      0.12260      0.02929         1.840031      0.504966     -0.032449
