# total energy = -219.87036976 eV
 
CRYSTAL
PRIMVEC
-0.002127 6.119450 6.306934 
6.274902 -0.017792 6.322433 
4.179758 4.086220 -0.008258 
PRIMCOORD
36 1
Li	      0.05003      6.07157      6.26701         0.012480      0.048572     -0.039858
Li	      6.33934     10.11288      8.42877        -0.014477     -0.044470      0.084949
Li	      4.19555      6.10808     10.41067        -0.014124      0.018109     -0.001344
Li	      4.17821      4.07790      4.24764        -0.004676     -0.028130      0.009612
Li	      6.28288      4.12333     10.47238        -0.027796     -0.050313     -0.130974
Li	      6.32086      8.18828      6.41341         0.061580     -0.038665      0.102198
Li	      4.14822      6.08273      6.36449         0.040706     -0.007590      0.023085
Li	      4.09492      4.20973      8.38009        -0.098805      0.024849      0.038705
Li	      6.20814      6.13900      8.46664         0.000101      0.058226     -0.047338
Mn	      2.07335      6.07874      4.20803         0.090602      0.178692     -0.043234
Cr	      4.22366      8.10279      8.37229         0.376333     -0.030620      0.251901
Cr	      4.18314      6.07241      2.10144        -0.051562     -0.047840     -0.041894
Fe	      2.16260      8.14804      6.21606        -0.236274      0.055533     -0.041731
Fe	      6.24152      6.10764      4.28508        -0.019742      0.269229     -0.116202
Fe	      6.17436      4.11112      6.32738         0.085694     -0.047691      0.143186
Co	      6.25638      8.15668     10.45866         0.174626     -0.134111      0.111817
Co	      2.08425      4.06345      2.10567        -0.015562      0.059541     -0.013852
Co	      4.16695      2.05021      6.29443         0.026097      0.055280     -0.109210
O	      2.05880      2.09867      2.11188         0.058520      0.014699      0.026557
O	      4.03263      4.02622      2.10800        -0.014701      0.009712     -0.011332
O	      4.11429      2.05599      4.10888        -0.058580     -0.051144      0.130724
O	      6.28855      4.14732      4.30329        -0.027149     -0.698076     -0.163019
O	      6.34107      2.03317      6.38564         0.229745     -0.009114     -0.124836
O	      8.31424      4.04750      6.46271         0.012543      0.089373     -0.003802
O	      2.07629      4.10404      4.06330        -0.032612      0.153932     -0.042289
O	      4.16463      6.11619      4.08778        -0.156901      0.019947     -0.018312
O	      4.23955      4.02539      6.39153        -0.088686     -0.105958      0.025702
O	      6.25164      6.11783      6.21781        -0.143592      0.001765      0.097274
O	      6.40833      3.98630      8.35908         0.034170     -0.022580      0.018307
O	      8.45676      5.98418      8.50858        -0.028333     -0.078896     -0.007837
O	      2.12287      6.16371      6.10976        -0.008012     -0.136756     -0.068555
O	      4.10382      8.17866      6.48921         0.075646      0.040346     -0.001164
O	      4.15097      6.28696      8.44536         0.013730      0.037100     -0.002956
O	      6.13234      8.19755      8.42183        -0.145556     -0.046883      0.098944
O	      6.47050      6.10532     10.51207        -0.110805      0.613353     -0.076133
O	      8.38792      8.05302     10.55318         0.005372     -0.169423     -0.057088
