# total energy = -218.83494315 eV
 
CRYSTAL
PRIMVEC
-0.006240 6.302470 6.306807 
6.099177 0.003563 6.296671 
4.077748 4.207024 -0.009573 
PRIMCOORD
36 1
Li	      4.10640     10.41183      6.40503        -0.026155     -0.001701     -0.130567
Li	      4.09203      8.49707      8.28726         0.005376     -0.084411     -0.003203
Li	      6.08441      8.40376     10.48895        -0.057860     -0.052149      0.022654
Li	      4.07841      6.23137      2.07447        -0.011722      0.128476     -0.002475
Li	      2.07134      4.22876      2.10162        -0.058635     -0.029831     -0.003688
Li	      4.06770      4.20447      4.06977        -0.028895     -0.015092      0.147678
Li	      4.07875      8.39234      4.24382         0.029546      0.010392     -0.065732
Li	      3.99416      6.43096      6.28409         0.038539     -0.074829     -0.086659
Li	      4.07660      4.19605      8.40381        -0.013502     -0.027383     -0.079340
Mn	      4.10670      2.11290      6.32506         0.011639      0.039730      0.110221
Cr	      6.04989      4.22595      6.32531         0.017138      0.085441      0.259051
Cr	      6.05705      8.42472      6.28052         0.203522     -0.401952     -0.071808
Fe	      8.15545     10.44164     10.50945         0.281014      0.189028      0.174739
Fe	      1.94555      2.16524      4.01904         0.049295      0.244404      0.256310
Fe	      2.12581      6.33753      4.18728        -0.143909     -0.181655     -0.148730
Fe	      6.05784      6.29812      8.45926         0.019272      0.199787     -0.166191
Co	      6.07713     10.46236      8.40893        -0.949010     -0.097735     -0.192365
Cu	      2.12643      8.37596      6.37997        -0.135583      0.116736     -0.030515
O	      4.26498      4.18284      2.08046         0.285959      0.041272      0.078975
O	      2.06633      2.02166      2.08480         0.083659      0.241058     -0.326627
O	      3.99219      2.01925      4.38385         0.089389      0.065647     -0.005958
O	      6.14162      4.30154      4.26650        -0.063898     -0.164738     -0.283646
O	      5.99773      2.24766      6.32485         0.215355     -0.167124      0.004366
O	      8.08903      4.37658      6.27308         0.054569      0.057559     -0.000548
O	      2.03747      4.17758      4.24224         0.024882      0.069084     -0.056001
O	      4.06838      6.30740      4.15676         0.037566     -0.044164     -0.025448
O	      4.04636      4.02391      6.28953         0.095404      0.119105     -0.021481
O	      6.18084      6.31581      6.31537        -0.193951     -0.029425     -0.125251
O	      6.07033      4.36338      8.27949         0.001183     -0.237022     -0.106346
O	      8.08940      6.32148      8.36803         0.196680      0.001965     -0.006828
O	      2.04219      6.16010      6.18856         0.031244      0.080064      0.329496
O	      4.10375      8.35996      6.29732        -0.238074      0.242412      0.042267
O	      3.98996      6.27031      8.52895         0.088970      0.031216      0.006184
O	      6.10125      8.39559      8.28413         0.065936     -0.301061      0.123171
O	      6.11437      6.34003     10.40471         0.016890      0.002594      0.284926
O	      8.12488      8.41616     10.68409        -0.021834     -0.055695      0.099366
