# total energy = -222.77465479 eV
 
CRYSTAL
PRIMVEC
0.012459 6.179431 6.343716 
6.197397 -0.002464 6.358679 
4.128076 4.125940 0.001736 
PRIMCOORD
36 1
Li	      4.12880      4.05778      0.13745         0.005719     -0.011291      0.108354
Li	      6.11369      4.16490      2.11283         0.031701     -0.000895     -0.007784
Li	      4.08810      2.14114      2.07450         0.003655      0.014222     -0.013374
Li	      6.18469      8.23511     10.56114        -0.014556      0.002665     -0.054006
Li	      2.14714      4.04419      2.13489         0.000340      0.007036     -0.001993
Li	      2.10752      2.10570      4.14708         0.004750     -0.002134     -0.114370
Li	      4.11903      2.04853      6.30166         0.011481     -0.026583     -0.041151
Li	      0.06974      4.14913      4.29171         0.017044      0.001408      0.051254
Li	      6.16595      8.23480      6.34705        -0.012213      0.010168      0.018824
Mn	      8.21225      8.22423      8.46471        -0.079559      0.054168      0.020374
Cr	      0.06991      2.03150      2.11597         0.037470     -0.013456     -0.034331
Cr	      8.21123      6.17745     10.63005        -0.047366      0.010410      0.091925
Fe	      4.16233      0.06654      4.26973         0.007099     -0.064307     -0.077410
Fe	      4.07556      3.99746      4.17978         0.141723      0.000742     -0.019667
Fe	      6.22130      4.11744      6.28470         0.079612     -0.064454      0.102572
Fe	      4.15184      6.28502      6.31590        -0.060467     -0.017466      0.053678
Co	      2.07075      2.06911      0.01430         0.017819     -0.036402      0.086072
Co	      6.21325      6.17066      8.47549        -0.025517      0.041488      0.032083
O	      2.00059      2.07784      1.96342        -0.009588     -0.017286      0.005377
O	      4.15244      4.19245      2.21152        -0.036190      0.056494     -0.049922
O	      4.12718      2.03120      4.24560         0.009727      0.025027     -0.011632
O	      6.23627      4.13903      4.29848        -0.087322      0.006946     -0.028733
O	      6.29320      2.09846      6.47772        -0.014652     -0.001518      0.007695
O	      8.24705      4.03436      6.27605         0.014219     -0.009681      0.064601
O	      2.11298      4.18582      4.25382        -0.077419      0.038720     -0.008650
O	      4.07235      6.14547      4.21270         0.003539      0.029830     -0.038037
O	      4.19775      4.19664      6.25307        -0.037492     -0.036448      0.019257
O	      6.16554      6.13695      6.53352         0.063045      0.045125      0.019291
O	      6.07081      4.13356      8.40146         0.017476     -0.012562     -0.019014
O	      8.22446      6.25329      8.57397         0.040176     -0.053438      0.012701
O	      2.12192      6.28986      6.28095        -0.027303      0.019837     -0.051786
O	      4.03041      8.19552      6.36626        -0.023406      0.078168      0.001420
O	      4.24858      6.08895      8.48454        -0.003873     -0.008872     -0.019266
O	      6.32344      8.09920      8.44058         0.006358     -0.022303      0.014321
O	      6.19804      6.16866     10.42173         0.054580     -0.003875     -0.112361
O	      8.26294      8.24747     10.71436        -0.010607     -0.039485     -0.006311
