# total energy = -216.56915819 eV
 
CRYSTAL
PRIMVEC
0.022456 6.213693 6.295664 
6.277894 0.009793 6.308289 
4.183900 4.149599 0.007827 
PRIMCOORD
36 1
Li	      8.29869      2.13606      6.23902        -0.006903     -0.014615     -0.018925
Li	      6.30664      2.09549      4.31246         0.075690     -0.018321      0.027131
Li	      8.23054      4.18296      8.38972        -0.036166      0.004881     -0.010737
Li	      4.17345      4.09845      4.35352        -0.030077      0.045753      0.069114
Li	      4.27094      2.02967      6.26375         0.051706     -0.024645      0.012140
Li	      6.30036      4.10825      6.33826         0.025287     -0.018264     -0.021337
Li	      6.30172      4.15454     10.41239         0.020040      0.051135     -0.016747
Li	      2.13792      4.10727      6.27498        -0.020827      0.027120     -0.005892
Li	      6.38110      6.14216      8.35233         0.012515     -0.034569     -0.045073
Mn	      4.22759      6.24152      6.25312         0.022356     -0.010594      0.310370
Cr	      6.24335      0.03232      6.28803         0.127126      0.020733     -0.005270
Cr	      8.41619     10.33325     10.54623         0.096172     -0.036069     -0.044261
Fe	      6.24856      4.12152      2.16653         0.024817      0.320584     -0.297734
Fe	      4.21551      2.12467      2.15726         0.017194      0.037572     -0.555529
Fe	      2.04902      6.11915      4.17462        -0.034015      0.264152      0.154590
Fe	      4.29088      4.06787      8.37395        -0.119336      0.073864     -0.025043
Cu	      2.09473      2.15591      4.22034         0.087490      0.138877      0.284367
Ni	      6.29385      2.11804      8.35457         0.056955     -0.053368     -0.006983
O	      2.10205      4.24398      4.18490         0.029941     -0.584946      0.024138
O	      2.11887      2.05176      2.26883         0.073261     -0.148394     -0.370325
O	      4.25932      4.13830      2.01899        -0.046047     -0.096164      0.154263
O	      4.16520      2.02290      4.11981        -0.287858     -0.181608      0.398955
O	      6.38791      4.18842      4.12460         0.049713      0.158122      0.264314
O	      6.28643      1.97740      6.35715        -0.039750     -0.051112     -0.145742
O	      8.47150      4.14268      6.18266        -0.075467      0.014518      0.035535
O	      4.14098      6.22763      4.35588         0.092101      0.036638     -0.186233
O	      4.18100      4.32626      6.39132         0.007454      0.095964     -0.161968
O	      6.11339      6.25763      6.16645        -0.192230     -0.003324      0.326367
O	      6.21864      4.11926      8.38089         0.094371      0.167201     -0.007620
O	      8.39406      6.25273      8.50607        -0.098507     -0.068747     -0.199233
O	      2.15452      6.24735      6.28291         0.097951      0.039345      0.017586
O	      4.17242      8.23296      6.45167        -0.022208     -0.060619      0.019767
O	      4.16816      6.24255      8.34299         0.079945      0.017074     -0.030836
O	      6.26935      8.38346      8.42213        -0.014323     -0.237769      0.004684
O	      6.30098      6.21157     10.60084        -0.123521     -0.017109     -0.094271
O	      8.38181      8.29779     10.38855         0.005149      0.146700      0.146437
