# total energy = -216.30501868 eV
 
CRYSTAL
PRIMVEC
0.000889 6.205480 6.324189 
6.252220 0.015348 6.309495 
4.179207 4.138031 -0.000557 
PRIMCOORD
36 1
Li	      0.08659      6.21215      6.32716         0.002686      0.011765     -0.024298
Li	      2.15400      8.17481      6.34635         0.058100      0.034161      0.001359
Li	      2.06660      6.20755      8.40246         0.042984     -0.027186     -0.025867
Li	      6.27515      8.26961     10.45188        -0.011907     -0.014934     -0.088590
Li	      2.09908      4.13647      2.19353        -0.031049     -0.004065     -0.012505
Li	      2.09731      2.10394      4.10959         0.012466      0.009604     -0.047808
Li	      0.05938      4.13506      4.19210         0.020727     -0.007589      0.026849
Li	      1.99835      4.22952      6.29015        -0.050428     -0.013369      0.026659
Li	      8.34404      8.23732      8.51151        -0.052343      0.027573      0.055595
Mn	      8.33467      6.24282      6.35194         0.039880     -0.136562     -0.055098
Cr	      4.11246      6.23015      6.31348        -0.059181      0.177405      0.122886
Cr	      6.23395      6.20090      8.45861         0.027137      0.153338      0.227137
Fe	      4.13739      2.12837      2.05710         0.300682      0.098619      0.055559
Fe	      8.32426     10.20747     10.51871         0.043653      0.111520     -0.040771
Fe	      4.10658      4.14967      4.13220         0.199902     -0.129413      0.128485
Fe	      6.30640      4.08875      6.32401         0.067763      0.148832     -0.078257
Cu	      0.07067      2.10520      2.14814         0.312285     -0.167349      0.065116
Cu	      8.28163      6.26252     10.53958        -0.055431      0.080799      0.040573
O	      2.18605      6.20714      6.23346         0.056439     -0.015847      0.077947
O	      8.31283      8.32632     10.54479        -0.019901     -0.159013      0.052287
O	      2.31761      2.10469      2.08573        -0.825924      0.014889     -0.028011
O	      4.25335      4.21333      2.17235        -0.066434     -0.001275     -0.155105
O	      4.15998      2.08784      4.10960        -0.032651      0.035211      0.159353
O	      6.30168      4.13734      4.30527        -0.151337      0.002133      0.037021
O	      6.11563      2.11050      6.45146        -0.138538     -0.124910      0.006962
O	      8.32680      4.30865      6.20338        -0.007330      0.036531      0.060694
O	      2.17717      4.23365      4.21914        -0.082195     -0.022667      0.007816
O	      4.15399      6.19431      4.25187         0.048363     -0.017195      0.043028
O	      4.23745      4.10403      6.23012        -0.011942      0.039096     -0.037287
O	      6.28620      6.15618      6.41978        -0.012567     -0.036850     -0.037024
O	      6.28987      4.12063      8.32966        -0.088503      0.155887     -0.097402
O	      8.18887      6.27025      8.46964         0.159780     -0.057349     -0.046920
O	      4.18030      8.18351      6.46286        -0.031413     -0.063496     -0.295498
O	      4.19420      6.17339      8.39208         0.004834     -0.028553     -0.062800
O	      6.04939      8.18669      8.42105         0.327938     -0.085449     -0.031017
O	      6.19036      6.19195     10.45582         0.003453     -0.024290     -0.031064
