# total energy = -216.27654234 eV
 
CRYSTAL
PRIMVEC
-0.013634 6.325044 6.250923 
6.224846 0.009094 6.228187 
4.155539 4.207311 0.000371 
PRIMCOORD
36 1
Li	      8.29031      2.14665      6.21216        -0.010017     -0.011182     -0.015767
Li	      4.10672      6.31267      2.19049        -0.028535     -0.046682      0.064218
Li	      8.28271      4.27881      8.34529         0.014852      0.063655      0.031425
Li	      4.04585      4.30629      4.29162        -0.010577      0.019292      0.090453
Li	      8.29547      6.35107      6.27512         0.009698      0.001201     -0.026926
Li	      6.16238      4.24278      6.25150        -0.060534     -0.003749     -0.041435
Li	      2.19020      6.21021      4.15721         0.040779     -0.060433     -0.007143
Li	      2.14842      4.24070      6.11672         0.014708      0.038924     -0.027137
Li	      4.15575      6.19052      6.16062         0.005582     -0.057851     -0.043426
Mn	      6.24716      2.11451      4.19167         0.005936      0.034791     -0.081696
Cr	      4.12993      2.12866      2.04741         0.017919      0.060534     -0.069832
Cr	      6.26114      6.29262      8.23193         0.051479     -0.017473     -0.119406
Fe	     10.34618      4.21940      6.24266         0.280830      0.051307      0.033883
Fe	      2.05908      0.06429      2.02910        -0.047541     -0.085971      0.032105
Fe	      6.13015      6.44066      4.30034         0.097778     -0.049505     -0.039084
Fe	      4.22408      4.09930      8.17179        -0.074937      0.083359      0.188187
Ni	      8.29734      4.21210      4.18855        -0.034257      0.015828      0.018619
Ni	      4.15747      8.37490      4.19459        -0.056163      0.015818      0.066942
O	      2.15743      2.00445      2.21837         0.035912      0.116386     -0.039784
O	      4.21233      4.13821      2.03521        -0.071702     -0.048477      0.098610
O	      4.24322      2.07846      4.05663         0.058061      0.060375      0.036474
O	      6.24792      4.07126      4.10169        -0.079847     -0.070025      0.067431
O	      6.24905      1.98890      6.06168        -0.015274      0.146863     -0.120599
O	      8.51596      4.21134      6.21024        -0.319980      0.016478      0.097299
O	      2.03269      4.13245      4.16754         0.086142      0.156046      0.003854
O	      4.21125      6.35451      4.18700        -0.135867     -0.099839      0.036397
O	      4.12142      4.23795      6.33845         0.022153     -0.067103     -0.208982
O	      6.24927      6.27931      6.23347         0.028472     -0.014206      0.197006
O	      6.17099      4.31604      8.36895         0.096306      0.066260     -0.107537
O	      8.22895      6.37640      8.32433        -0.066325     -0.114669     -0.033335
O	      1.88235      6.33009      6.33660         0.078891      0.021414     -0.102859
O	      4.11107      8.59264      6.28629        -0.014859     -0.103563      0.096055
O	      4.13840      6.39922      8.30375         0.064849     -0.024863     -0.103754
O	      6.18515      8.41561      8.42500         0.003421     -0.046610      0.085813
O	      6.20202      6.43951     10.32612         0.096131      0.052268     -0.036318
O	      8.18590      8.48943     10.29836        -0.083485     -0.098598     -0.019750
