# total energy = -222.59829149 eV
 
CRYSTAL
PRIMVEC
0.042879 6.188789 6.223953 
6.453747 0.028005 6.239259 
4.311496 4.145217 0.009658 
PRIMCOORD
36 1
Li	      6.46647      6.20461     12.38250        -0.031958     -0.058467      0.038260
Li	      8.63059      4.14641      4.21967         0.025663     -0.025696      0.035780
Li	      8.54077      4.19515      8.36017        -0.044271     -0.016954      0.015923
Li	      6.38634      6.26815      4.22200        -0.086455      0.057598     -0.023040
Li	      6.53855      4.19260      6.20661         0.062379     -0.045781     -0.000702
Li	      0.13438      4.14259      4.15638         0.121815     -0.047290      0.039642
Li	      2.16711      6.16675      4.16531         0.024900      0.008007      0.013853
Li	      4.38584      6.23941      6.19269        -0.012640      0.066038     -0.047972
Li	      6.53000      6.14811      8.33364         0.048554     -0.090626     -0.022585
Mn	      6.46413      2.10525      8.30108        -0.000322      0.016421     -0.041736
Cr	      6.54849      8.17910     10.41731        -0.057845     -0.170856      0.221885
Cr	      6.46538      8.26897      6.20899        -0.099848      0.038693     -0.283840
Fe	      2.24029      6.23429      8.29621        -0.133123      0.062330     -0.069276
Fe	      4.31113      8.23159      8.27788         0.009894      0.118157     -0.186474
Fe	      4.28233      4.21851      4.20349        -0.029748      0.091383      0.002827
Fe	      8.51231      6.06310      6.25972         0.214403      0.000538      0.036548
Fe	      4.43907      4.15315      8.31679         0.003393      0.024929     -0.122545
Co	      8.71635      8.32220     12.42414        -0.224629      0.057399     -0.157357
O	      2.29449      2.04286      2.09859        -0.004123      0.065431     -0.194299
O	      4.38509      4.20099      2.14339         0.064249     -0.075863     -0.031446
O	      4.47370      2.13917      4.13365         0.091348     -0.089420      0.050633
O	      6.34706      4.00841      4.11288         0.068674     -0.077468      0.045137
O	      6.42792      2.08683      6.22609        -0.052647      0.001002     -0.117047
O	      8.59639      4.17167      6.24440         0.042685     -0.530528     -0.002017
O	      2.28407      4.15784      4.23673        -0.048358     -0.021472      0.053776
O	      4.36469      6.16823      4.02206        -0.000783      0.082373      0.000084
O	      4.20223      4.10970      6.25178        -0.043910     -0.016125     -0.001932
O	      6.56511      6.26759      6.21802        -0.154544      0.080848      0.017809
O	      6.37220      4.03991      8.34467         0.080708      0.084963      0.003375
O	      8.61910      6.30614      8.24244        -0.079579     -0.043750      0.045864
O	      2.18569      6.18230      6.31730         0.083022      0.348068      0.038307
O	      4.42040      8.27466      6.31268         0.189056     -0.008338      0.066555
O	      4.26723      6.20467      8.33226         0.041219     -0.064536      0.051901
O	      6.45522      8.31787      8.32939         0.034347     -0.053379      0.086999
O	      6.46745      6.38107     10.36897        -0.035184      0.194821     -0.025062
O	      8.44238      8.30937     10.31409        -0.066344      0.037550      0.462175
