# total energy = -221.18782540 eV
 
CRYSTAL
PRIMVEC
0.031754 6.298646 6.268532 
6.222392 0.038489 6.261479 
4.164006 4.209860 0.010139 
PRIMCOORD
36 1
Li	      2.10315      2.11186      0.04351         0.013497      0.006490     -0.006652
Li	      4.17498      8.40800      8.28796        -0.023024     -0.023120     -0.028226
Li	      6.24771      2.18283      8.32819         0.027707      0.008673     -0.025327
Li	      4.16395      4.24001      4.17483         0.020739      0.008074      0.043811
Li	      6.18373      4.17898      6.37883        -0.043272     -0.089960      0.014657
Li	      6.24308      4.21306     10.39829        -0.003667     -0.022298     -0.016463
Li	      4.18248      6.32262      6.35130        -0.027652      0.017095      0.035654
Li	      4.27582      4.28205      8.28905         0.045683      0.043610     -0.007456
Li	      6.20181      6.22706      8.32682        -0.016025     -0.042919     -0.023255
Mn	      6.25898      8.42477      6.31572         0.055831     -0.010726      0.029076
Cr	      4.22541     10.49121      6.29418         0.002637      0.068983      0.011010
Cr	      8.32000      6.36557      6.32937         0.011920      0.001467      0.049393
Fe	      4.19033      6.27785     10.32635         0.018884     -0.038801      0.229750
Fe	      6.25188      8.46921     10.38170        -0.094930      0.103654     -0.011236
Fe	      8.22000      4.19505      8.36191         0.192803     -0.013650      0.018521
Fe	      6.11830      6.27251      4.17394         0.056842     -0.024052      0.101235
Fe	      8.46657      6.39459     10.34305        -0.007337      0.018595      0.039689
Cu	      2.04058      0.05902      2.07660         0.028613      0.046825      0.012369
O	      4.07406      6.33041      8.45023         0.079538      0.024300     -0.225089
O	      2.09770      2.13241      2.19871         0.027313      0.017008     -0.120377
O	      4.19400      4.23164      1.99871        -0.117130     -0.027543      0.010473
O	      4.14983      2.04240      4.28640        -0.035356      0.063243      0.008285
O	      6.29783      4.23202      4.35236        -0.055446     -0.015933      0.105745
O	      6.15562      2.06113      6.16319         0.047483     -0.045477      0.079970
O	      8.41117      4.29543      6.31066        -0.019867     -0.016990     -0.125486
O	      2.11301      4.19550      4.21362         0.021963     -0.015117      0.065804
O	      4.17889      6.30320      4.21749        -0.004763     -0.010650     -0.002527
O	      4.02359      4.12633      6.30655        -0.073596      0.003682     -0.035668
O	      6.29184      6.48884      6.22738        -0.010764      0.007098      0.090881
O	      6.35044      4.24131      8.32725        -0.225527     -0.028319      0.046454
O	      8.33585      6.25599      8.38296        -0.000490      0.014092     -0.122370
O	      2.07324      6.16651      6.09489         0.010196      0.033392     -0.042007
O	      4.33758      8.50215      6.26837         0.029146     -0.012900     -0.061221
O	      6.23582      8.50841      8.32360        -0.026217     -0.035017     -0.100594
O	      6.24962      6.42509     10.46770         0.027442     -0.062656      0.008764
O	      8.26002      8.42310     10.47600         0.066826      0.049843     -0.047587
