# total energy = -224.95462533 eV
 
CRYSTAL
PRIMVEC
0.007386 6.139442 6.236564 
6.413716 -0.009817 6.253120 
4.279505 4.107931 -0.010053 
PRIMCOORD
36 1
Li	      4.26397      4.10297      0.02665        -0.032675      0.008130      0.029891
Li	      6.30514      4.13957      2.11607        -0.088683      0.016284     -0.024725
Li	      4.23774      2.13618      2.10075        -0.003852      0.022662      0.012479
Li	      4.29462      6.13454     10.40902         0.030997      0.002035     -0.028603
Li	      2.24997      4.07460      2.13076         0.096237      0.040583      0.056779
Li	      4.28982      4.08545      4.04886        -0.012921      0.009724      0.005721
Li	      6.45556      4.05565      6.18991         0.064590     -0.006903     -0.013401
Li	      6.45969      4.14495     10.41288         0.044243      0.033623      0.006170
Li	      8.46970      6.10237     10.41250        -0.106084     -0.026949     -0.002290
Mn	      4.28874      6.10389      2.12545        -0.005058      0.010389      0.050283
Cr	      2.18456      1.98651      4.11745         0.029850     -0.003212     -0.090079
Cr	      6.43742      6.08230      8.35036        -0.038500     -0.045027      0.055628
Fe	      8.61580      2.13997      6.26943        -0.012830     -0.083699     -0.018538
Fe	      6.40190      2.11644      4.15500        -0.086318     -0.052008     -0.017383
Fe	      8.61085      6.02768      6.19967        -0.034199      0.010961      0.066213
Fe	      2.08427      4.17561      6.15899        -0.075176      0.057925      0.148644
Fe	      4.24197      6.13902      6.17997         0.042452     -0.046565      0.004909
Fe	      8.57025      8.21615      8.39354        -0.021301     -0.014727      0.070197
O	      2.12521      2.06383      2.07643         0.057847     -0.001500      0.034146
O	      4.26811      4.26686      2.06847         0.046964     -0.061010     -0.033164
O	      4.26249      2.04616      4.25432        -0.005979      0.012018     -0.162998
O	      6.43377      4.07053      4.13340         0.004093      0.119820     -0.000298
O	      6.38774      2.04662      6.21872         0.037183     -0.006749      0.095152
O	      8.54585      4.07388      6.26687        -0.005259      0.069684     -0.001228
O	      2.13231      4.01209      4.26493         0.015536     -0.017821     -0.183528
O	      4.45051      6.11092      4.20552        -0.007869      0.037123     -0.120113
O	      4.14579      4.07853      6.33991         0.100734     -0.078236     -0.080318
O	      6.43640      6.16977      6.21778        -0.016632     -0.088119      0.023978
O	      6.27579      4.02454      8.36476         0.078413      0.024904     -0.026836
O	      8.49776      6.16687      8.23749        -0.058116     -0.025354      0.103057
O	      2.25377      6.17103      6.22062        -0.093938      0.088087      0.032921
O	      4.26437      8.15368      6.25658         0.090903      0.061338     -0.020225
O	      4.44084      6.07061      8.20498        -0.027952      0.118448      0.060538
O	      6.47642      8.12003      8.30886        -0.036315      0.003117     -0.097003
O	      6.41754      6.24501     10.27985         0.004521     -0.138885      0.087587
O	      8.45929      8.19628     10.43848         0.025094     -0.050093     -0.023562
