# total energy = -209.13139405 eV
 
CRYSTAL
PRIMVEC
0.013183 6.295169 6.175964 
6.155474 0.046111 6.142626 
4.141803 4.212725 -0.007148 
PRIMCOORD
36 1
Li	      0.17300      6.22859      6.13508        -0.014345     -0.054984      0.043411
Li	      2.11423      8.25434      6.15768         0.028159     -0.023673     -0.000938
Li	      2.10847      6.28481      8.10559        -0.002989     -0.020021      0.020865
Li	      6.13054      6.37529      4.10453        -0.058650      0.060358      0.051761
Li	      4.13896      8.40154      4.17230         0.024594     -0.072009      0.055800
Li	      2.01485      4.35085      6.19290         0.021152      0.046447      0.006219
Li	      4.05476      6.35914      6.17207         0.054707     -0.000984     -0.009742
Li	      8.21130      8.46072      8.26478        -0.005557     -0.009152     -0.036870
Li	      6.17302      6.35807      8.22572        -0.014301      0.011358     -0.039437
Mn	      4.10226      4.26705      4.08470         0.032234      0.028708      0.014888
Mn	      6.17943      4.26096      6.16404        -0.074779      0.017981     -0.036494
Cr	      4.10830      8.35256      8.11063         0.067467     -0.061948     -0.065858
Cr	      8.21875      6.33831      6.15392        -0.014804      0.017052     -0.049644
Co	      6.17153      2.13650      4.09534        -0.046398      0.030624     -0.040426
Cu	      4.19660      6.23685     10.21099         0.005886     -0.061556      0.059357
Cu	      8.20121      6.38476     10.31397         0.002313     -0.026546     -0.060132
Ni	      0.06298      2.08509      2.04584         0.126805     -0.044873     -0.002815
Ni	      2.07354      4.20430      2.06464        -0.013292     -0.009684     -0.023785
O	      2.08113      6.30673      6.10790         0.018722      0.013505      0.078890
O	      6.20035      6.51226     10.29329        -0.103332     -0.006143     -0.014184
O	      8.09176      8.36315     10.24350         0.013793      0.162583      0.014182
O	      2.19929      2.16162      2.12031         0.081007     -0.146140     -0.050057
O	      4.12773      4.19254      2.16476         0.143701     -0.135157     -0.046942
O	      4.20139      2.29110      4.10689         0.007554     -0.022902     -0.024351
O	      6.08539      4.12534      4.19138        -0.002944     -0.037463      0.064034
O	      6.11382      2.27347      6.08544         0.003463      0.038873     -0.101075
O	      8.12208      4.31451      6.02809         0.008731     -0.015290      0.007372
O	      2.19139      4.27327      4.12165        -0.117435     -0.120513      0.084561
O	      4.10261      6.17675      4.06440         0.143026      0.121838      0.098273
O	      4.21413      4.15956      6.05880         0.042345      0.017454      0.039570
O	      6.25387      6.14959      6.11603        -0.041176     -0.077798      0.050892
O	      6.20937      4.16788      8.05880        -0.180243      0.163927     -0.069148
O	      8.30306      6.29345      8.11928        -0.178343      0.150437      0.090065
O	      4.17222      8.39034      6.32336        -0.019431      0.027855      0.049329
O	      4.11076      6.41859      8.32003         0.019139      0.048898     -0.091531
O	      6.01872      8.45393      8.37757         0.043221     -0.011065     -0.066041
