# total energy = -207.60371873 eV
 
CRYSTAL
PRIMVEC
-0.035930 6.175417 6.162526 
6.241254 -0.050295 6.177237 
4.141343 4.107205 -0.014435 
PRIMCOORD
36 1
Li	     10.34673      4.11246      6.24947        -0.103863      0.041962      0.042862
Li	      2.04608      2.08000      0.09757         0.001015      0.079543      0.013178
Li	      2.00559      0.09951      2.01925        -0.003960      0.017500     -0.035804
Li	      0.00514      2.05162      2.05430         0.097707     -0.098374     -0.029652
Li	      2.09071      4.03897      2.05768         0.107531     -0.126538     -0.071053
Li	      2.01392      2.10244      3.97802         0.051203     -0.047498     -0.085333
Li	      8.34089      6.05952      6.31257         0.071110     -0.035414     -0.032435
Li	      6.27148      4.05283     10.18255         0.058581     -0.000745      0.057837
Li	      6.27795      6.07533      8.22375        -0.077169      0.038758      0.028220
Mn	      6.20516      2.03561      4.14447        -0.109478     -0.045867     -0.006435
Mn	      4.13620      6.14821      6.13160        -0.046442      0.124847      0.004024
Cr	      8.26378      4.12086      4.12750        -0.083536      0.079418     -0.435995
Cr	      6.21773      8.16351      6.15422        -0.199465      0.069281     -0.104296
Co	      4.13637      4.08686      4.06996         0.018970     -0.004930     -0.164388
Cu	      6.29593      4.06202      6.25103         0.030607     -0.012691     -0.097197
Cu	      8.27669      6.09596     10.22182        -0.033063     -0.015257     -0.036990
Cu	      8.37224      8.11978      8.24492        -0.137821      0.349995      0.269426
Ni	      4.10528      2.07920      2.02238         0.079117     -0.111102     -0.123031
O	      4.18309      5.99937      4.19951        -0.099665      0.073448      0.076108
O	      6.17857      4.03818      8.16310        -0.002690      0.061119      0.326030
O	      8.29667      6.22605      8.30517        -0.042402     -0.134422      0.119135
O	      2.22406      2.03997      2.03849        -0.406674     -0.038291      0.013815
O	      4.14018      4.02180      2.16425         0.043265      0.367670      0.096522
O	      4.25742      2.08752      4.09602         0.080023     -0.038141      0.059648
O	      6.17784      3.98934      4.18516        -0.058806     -0.075560     -0.101013
O	      6.20452      2.08085      6.04142        -0.068518     -0.076151     -0.001953
O	      8.23668      4.13418      6.04910         0.195077      0.042845      0.456441
O	      2.22856      4.06599      4.18585        -0.008866      0.094231     -0.053350
O	      4.10068      4.19151      6.02241        -0.011788     -0.082506      0.113495
O	      6.05611      6.14778      6.15816         0.075441      0.037747      0.052556
O	      2.17660      6.06357      6.04815         0.078563     -0.003238      0.005102
O	      4.21658      8.06013      6.08882         0.105981     -0.121765     -0.070237
O	      4.08082      6.13508      8.15548         0.041564     -0.267480     -0.215071
O	      6.10221      8.22722      8.24582         0.301360     -0.035456      0.103449
O	      6.07125      6.30372     10.31689        -0.024223     -0.064407      0.118154
O	      8.07880      8.31226     10.35425         0.081313     -0.042527     -0.291768
