# total energy = -209.07276015 eV
 
CRYSTAL
PRIMVEC
0.024574 6.135931 6.467940 
6.174308 0.039733 6.450903 
4.131464 4.094759 0.012107 
PRIMCOORD
36 1
Li	      4.13876      8.18128      8.59254        -0.046144      0.009419     -0.009522
Li	      4.17142      6.14115     10.72093        -0.006269     -0.004372     -0.033286
Li	      4.12435      6.19846      2.29510         0.025196      0.010065      0.051620
Li	      6.12244      6.15861      4.31623        -0.037174      0.012294      0.020531
Li	      6.18476      4.08212      6.56562        -0.037285      0.055168      0.057285
Li	      4.13747      8.08385      4.34106         0.037183     -0.013433     -0.077197
Li	      8.31731      6.22516     10.68339         0.039888     -0.016832      0.025181
Li	      4.19169      6.15853      6.37412         0.054109     -0.055368     -0.034203
Li	      8.32131      8.19955      8.75378         0.113709      0.098853      0.049068
Mn	      2.12386      6.14441      8.62465         0.016060     -0.123020      0.221393
Mn	      4.07192      4.15329      4.28432        -0.108753      0.155392     -0.210305
Cr	      8.22813      6.17014      6.45927        -0.059834      0.199891     -0.127830
Cr	      6.13308      6.17406      8.68334        -0.248915     -0.290538      0.235391
Co	      2.07054      4.07185      2.18621        -0.008619      0.256113      0.067158
Cu	      6.19168      6.16281     12.88515        -0.034605     -0.095376      0.082120
Cu	      2.11983      8.17516      6.44641         0.279484     -0.114633      0.048768
Cu	      6.23524      8.21448     10.79042        -0.036247      0.011685     -0.018957
Cu	      2.05101      4.12193      6.43690         0.143728     -0.115243     -0.019638
O	      2.02645      6.04624      6.62869        -0.123992      0.274525      0.041673
O	      4.30209      8.27355      6.43648        -0.463343      0.182104      0.069365
O	      6.25364      6.23152     10.53552         0.014202     -0.055989     -0.331368
O	      8.21157      8.24270     10.98148         0.084740     -0.013464     -0.063589
O	      2.07541      1.94209      1.95728        -0.058578      0.578964     -0.048860
O	      4.01417      4.09121      2.35897        -0.268210      0.011259      0.065365
O	      4.14748      2.13783      4.42093        -0.026301     -0.028257      0.138483
O	      6.06558      4.10571      4.18082         0.008740      0.153201     -0.172373
O	      6.10057      1.99905      6.34089        -0.119287     -0.089250      0.150288
O	      8.30324      4.14271      6.62851         0.044146      0.142524      0.295689
O	      2.16648      4.06545      4.12477        -0.035232      0.070092     -0.413059
O	      4.12913      6.01327      4.32214        -0.040814     -0.120944     -0.029674
O	      3.99933      4.07765      6.26686         0.288618     -0.091193     -0.002651
O	      6.22542      6.28622      6.62123         0.115542     -0.321610      0.097904
O	      6.28901      4.21727      8.61941         0.252484      0.073353     -0.076403
O	      8.13667      6.20097      8.47503         0.046523     -0.896869      0.100270
O	      4.28451      6.13325      8.58882         0.174861      0.019217      0.017520
O	      6.24577      8.25952      8.78873         0.020391      0.132270     -0.166158
