# total energy = -208.11179502 eV
 
CRYSTAL
PRIMVEC
0.030858 6.208381 6.164860 
6.199558 0.024787 6.170944 
4.119649 4.129554 0.030073 
PRIMCOORD
36 1
Li	     10.24681      4.22566      6.22428         0.007626     -0.017258      0.025484
Li	      4.12201      2.10973      2.18917         0.106436      0.030829      0.149809
Li	      4.16046      0.05858      4.12079        -0.036967      0.166241     -0.023378
Li	      6.19363      8.25217     10.27520        -0.134191      0.016568     -0.079663
Li	      4.12059      6.15494      2.07499        -0.169093      0.044811      0.045956
Li	      2.10423      4.15203      2.08224        -0.028082      0.114560      0.030412
Li	      2.13466      2.10795      4.02550         0.054996     -0.043828      0.090995
Li	      8.26335      6.22176     10.16010         0.000883     -0.075111     -0.171568
Li	      8.23366      8.22776      8.32090         0.066340     -0.053733     -0.080130
Mn	      6.16754      4.14213      2.15508         0.011099     -0.498955      0.196752
Mn	      4.14523      6.21861      6.18241         0.126061     -0.165586      0.013110
Cr	      6.24424      4.11057      6.19588        -0.190176      0.353677     -0.051116
Cr	      6.20494      4.21599     10.22836         0.484156      0.033362     -0.199146
Co	      2.09363      8.26527      6.19014        -0.451339      0.132370      0.310547
Ni	      4.08860      4.11199      4.06325        -0.015136      0.087644     -0.060501
Ni	      4.20810      2.02251      6.16849        -0.063547      0.049849      0.018307
Ni	      6.19070      8.28827      6.20271         0.002669      0.033288     -0.016820
Ni	      6.23230      6.27453      8.28890        -0.080962     -0.020215      0.075531
O	      2.07647      1.93081      1.95162         0.123191      0.239435     -0.426225
O	      4.27915      4.13235      2.08824         0.075852      0.052151     -0.308735
O	      4.12454      2.13252      4.24210         0.106312     -0.374995      0.071496
O	      6.17836      4.16926      4.08379         0.187158      0.002486     -0.112479
O	      6.31461      2.16521      6.15456        -0.279781     -0.200912     -0.012064
O	      8.19218      4.03235      6.20361         0.090427      0.313532     -0.017588
O	      1.95130      4.12472      4.16608        -0.241218     -0.017519     -0.128248
O	      4.11950      6.27026      4.26611        -0.000666      0.228793      0.004878
O	      4.17666      4.26527      6.10803         0.084745      0.063733      0.230304
O	      6.09377      6.18399      6.24275        -0.061477     -0.082420     -0.216035
O	      6.18131      4.20057      8.23105        -0.027326     -0.234888      0.112650
O	      8.20114      6.23239      8.13264         0.428050     -0.069889     -0.113246
O	      2.19107      6.27038      6.31103        -0.017514     -0.309979     -0.034978
O	      4.08371      8.16936      6.09518         0.393801      0.012284      0.077763
O	      4.10530      6.23193      8.11127        -0.292432      0.022437     -0.040705
O	      6.22014      8.38424      8.20116         0.025551      0.280605      0.136023
O	      6.23744      6.07272     10.27414        -0.061918     -0.094279      0.297905
O	      8.44879      8.25663     10.42421        -0.223527     -0.019088      0.204702
