# total energy = -210.66691821 eV
 
CRYSTAL
PRIMVEC
-0.036654 6.189552 6.227925 
6.192335 -0.023986 6.215342 
4.109513 4.098948 0.002821 
PRIMCOORD
36 1
Li	      4.13579      1.99070      2.14862        -0.005259      0.010558     -0.049584
Li	      4.07102      6.17450     10.34923        -0.043519      0.006641      0.063498
Li	      6.15203      2.09198      4.15884        -0.010754      0.034792      0.057409
Li	      6.19312      6.13096      4.32357         0.017212     -0.024029      0.046938
Li	      4.00363      2.15314      6.09720         0.014277     -0.040884     -0.052484
Li	      6.07323      4.14065      6.10422         0.053340     -0.018047     -0.033887
Li	      4.01765      8.20564      4.22670         0.042668     -0.025114      0.051337
Li	      6.20045      8.16243      6.22734        -0.076273      0.021009     -0.014030
Li	      4.12976      6.12322      6.20357        -0.021942      0.068764      0.011998
Mn	      6.18275      6.13507     12.33802        -0.099076     -0.102812      0.091203
Mn	      8.22699      4.08344      8.28906         0.140992     -0.153562      0.004961
Cr	      6.17326      2.05051      8.29318         0.080438     -0.030124     -0.082276
Cr	      6.11564      6.28417      8.24082        -0.086558      0.088874      0.000370
Co	      2.04696      8.23203      6.21298        -0.026284      0.084811      0.102499
Co	      4.14053      4.05490      4.21182         0.059732     -0.105042      0.110914
Cu	      2.04026      6.18723      4.18946        -0.012421     -0.194173      0.148105
Ni	      6.20540     10.25518      8.37768        -0.061648      0.047994      0.045791
Ni	      4.13666      4.13926      8.26198         0.175011     -0.111268     -0.044551
O	      6.11478      6.13612      6.43112         0.035271      0.009379      0.072138
O	      1.97772      2.14681      1.98825         0.042726     -0.207556     -0.169664
O	      4.02363      4.16555      2.17891         0.153411      0.022797      0.006959
O	      4.08449      2.23642      4.14642        -0.007162      0.086653     -0.011793
O	      6.00646      4.13321      4.09799        -0.005784     -0.015212      0.222660
O	      6.31608      1.90598      6.28247         0.004266      0.079711     -0.020150
O	      8.34453      3.97125      6.30317        -0.063697     -0.039211     -0.046319
O	      2.15983      4.15718      4.01760        -0.120875      0.019423     -0.045530
O	      4.03967      6.03948      4.07098         0.058249      0.073077     -0.041545
O	      4.08337      4.11690      6.10798         0.000247     -0.006702     -0.145870
O	      6.26588      4.07792      8.29084        -0.211861      0.070120     -0.020141
O	      8.25039      6.06305      8.12282        -0.074038      0.260589      0.076707
O	      1.93999      6.28941      6.40455         0.096816      0.022892     -0.305550
O	      3.98907      8.35532      6.23446        -0.018466     -0.005708     -0.015242
O	      4.15793      6.13121      8.35475         0.135872      0.169818      0.012572
O	      6.24269      8.15039      8.28945        -0.198740     -0.224348      0.022289
O	      6.22419      6.11819     10.20344         0.032259     -0.024219     -0.161270
O	      8.21623      8.11192     10.47661         0.001568      0.150111      0.111539
