# total energy = -210.41962215 eV
 
CRYSTAL
PRIMVEC
0.020066 6.284327 6.258569 
6.165716 0.000376 6.278020 
4.108737 4.200902 0.001753 
PRIMCOORD
36 1
Li	      4.17027      4.09271      0.17266        -0.053963      0.054248      0.001839
Li	      2.07514      6.32723      8.26478         0.000514      0.065959     -0.009185
Li	      4.07827      8.41379      8.22433        -0.042117     -0.020692      0.076377
Li	      6.21322      2.06925      8.29307         0.049401     -0.017708      0.002065
Li	      2.09522      4.02543      2.03275         0.035280     -0.050227      0.007089
Li	      1.98789      2.19036      4.07826         0.044419     -0.008700     -0.136325
Li	      0.15284      4.13772      4.20143         0.005879     -0.008963     -0.073898
Li	      6.12885      8.41375      6.30869         0.116763      0.028818     -0.014573
Li	      6.14837      6.29158      8.29581         0.003265      0.024205      0.053870
Mn	      6.13024      2.09136      4.21529         0.117612     -0.003467     -0.092832
Mn	      4.08026      4.25455      4.04978        -0.043782     -0.065713     -0.412490
Cr	      8.22560      4.19148      4.22105        -0.013073     -0.039591      0.034335
Cr	      8.23863      6.27987     10.42074        -0.082438      0.103334     -0.026905
Co	      2.11071      2.07198      0.09918         0.200900     -0.034274     -0.550108
Co	      4.13619      4.22123      8.38273         0.025952      0.049607      0.138158
Cu	      8.16081      6.30806      6.39066        -0.096345     -0.075883     -0.041431
Cu	      6.14808      4.23190      6.33953         0.148460     -0.232794      0.153065
Cu	      4.18211      6.38943      6.28119         0.170233     -0.218877     -0.068309
O	      6.22708      6.21983      6.23834        -0.491247      0.417536      0.103267
O	      5.99562      4.21476      8.30314        -0.143265     -0.001428      0.076448
O	      4.17590      8.31302      6.20749        -0.863836     -0.052605      0.106618
O	      2.06022      2.04762      1.91297        -0.014887      0.041417      0.237252
O	      4.13571      4.11895      2.23165        -0.014779      0.051708      0.193231
O	      4.20380      2.07284      4.23781         0.021874      0.102767     -0.032535
O	      6.15211      4.06011      4.25498        -0.141710     -0.045751     -0.076840
O	      6.03543      2.17454      6.18053         0.716107     -0.181846     -0.031666
O	      8.13998      4.04087      6.25846         0.302075     -0.184303      0.073900
O	      2.18354      4.29105      4.10913         0.118359      0.052906      0.051155
O	      4.05834      6.13809      4.00543        -0.016878     -0.114911      0.036351
O	      4.15451      4.38611      6.10609        -0.209528      0.236286     -0.006897
O	      8.19348      6.50293      8.39397        -0.026567      0.097187      0.092386
O	      2.14224      6.37819      6.14922         0.144315      0.260555      0.143561
O	      4.12836      6.13660      8.55124         0.051375     -0.153342     -0.037639
O	      6.32473      8.40336      8.57386         0.038456     -0.021603      0.015158
O	      6.16485      6.45768     10.53405         0.053037     -0.044015      0.010674
O	      8.12259      8.39749     10.63239        -0.109860     -0.009838      0.004834
