# total energy = -211.18738207 eV
 
CRYSTAL
PRIMVEC
-0.052676 6.199718 6.120725 
6.214113 -0.046589 6.114545 
4.112358 4.098636 -0.000635 
PRIMCOORD
36 1
Li	     -0.01925      6.16290      6.09626         0.050821     -0.017188      0.042718
Li	      4.12840      6.18755     10.18227         0.035630     -0.021080     -0.013047
Li	      6.12478      8.17654     10.17146        -0.023481     -0.003548      0.015128
Li	      8.24073      4.09213      8.16804         0.010194      0.064231     -0.053504
Li	      2.09003      2.08166      4.07871        -0.010786      0.030980      0.019586
Li	      4.08124      4.06162      4.07816        -0.001760     -0.005550      0.020649
Li	      2.01318      4.14792      6.12441        -0.029753      0.040053      0.067268
Li	      8.23397      8.17233      8.16685        -0.022425     -0.081244      0.017491
Li	      6.17633      6.16038      8.18415         0.060817      0.054171     -0.075761
Mn	      4.14147      2.05489      2.09710        -0.009765     -0.004756      0.436864
Mn	      4.11130      2.03915      6.09001        -0.063103     -0.018322     -0.125048
Cr	      6.18266      4.06258      2.11062        -0.014761     -0.077456      0.062713
Cr	      6.18917      4.09576      6.05820        -0.015191      0.044925     -0.437167
Co	      6.18695      4.11889     10.15269         0.318670      0.346187     -0.168167
Co	      8.20414      6.12511     10.18076         0.105517     -0.047566     -0.176859
Ni	      8.22636      8.21203     12.22727        -0.100690      0.103781      0.004072
Ni	      4.09252      6.14008      2.04378        -0.051083     -0.137225      0.029122
Ni	      4.11079      6.15427      6.13579         0.104790     -0.096172     -0.002340
O	      2.11929      1.99821      2.04603         0.062170      0.030794      0.129237
O	      4.18120      4.01283      2.06695        -0.029483     -0.033325      0.049538
O	      4.11159      2.03826      4.07491         0.014117      0.020047     -0.496147
O	      6.18104      4.08001      4.14879         0.005992      0.013742      0.148967
O	      6.11988      2.07918      6.10321         0.075607      0.041726     -0.098265
O	      8.15000      4.16235      6.08413        -0.139397     -0.081838      0.000302
O	      1.86920      4.27908      4.07632        -0.414619      0.090096     -0.026090
O	      3.97223      6.29101      4.08188        -0.117933      0.131670      0.027326
O	      4.20552      4.01860      6.09572         0.124587      0.064797     -0.013346
O	      6.26070      6.07059      6.10168        -0.121193     -0.070296     -0.018824
O	      6.17352      4.02920      8.00012         0.036237      0.175232      0.560071
O	      8.27329      6.12684      8.05203        -0.055314     -0.015727      1.080970
O	      2.07117      6.21806      6.19511        -0.103071     -0.056239     -0.425990
O	      4.04972      8.20951      6.23545         0.078338      0.117446     -0.604420
O	      4.02918      6.29544      8.17183         0.006655     -0.002620      0.126132
O	      5.99357      8.28950      8.18589         0.031680     -0.021694      0.050117
O	      6.29332      6.01670     10.18588        -0.000535     -0.469306     -0.005765
O	      8.35203      8.07581     10.20720         0.202519     -0.108729     -0.147532
