# total energy = -214.01657165 eV
 
CRYSTAL
PRIMVEC
0.040186 6.080181 6.145462 
6.359430 0.049581 6.136976 
4.279101 4.087552 -0.006608 
PRIMCOORD
36 1
Li	      2.31567      8.12882      6.20843         0.068820      0.031172     -0.088907
Li	      4.32552      8.16416      8.12556         0.007942      0.019824      0.113053
Li	      6.37217      8.12513     10.19148        -0.050620     -0.025135      0.056098
Li	      4.24078      4.02734      4.12555        -0.043078     -0.025565      0.020715
Li	      4.18314      2.05336      6.06615        -0.072597      0.007442     -0.111969
Li	      4.35313      8.17538      4.22715         0.047720     -0.121715     -0.023666
Li	      6.36662      8.13796      6.16628         0.023192     -0.048471     -0.065025
Li	      4.32543      6.15704      6.13089         0.085129     -0.026386     -0.081003
Li	      6.34736      6.20296      8.06376        -0.019000      0.014277      0.029740
Mn	      2.22194      6.08419      4.22145         0.129283      0.042314      0.128358
Mn	      8.51999      8.15747      8.15191         0.145192     -0.089648     -0.070699
Cr	      8.51728      4.10739      4.13020        -0.048437      0.425325      0.151691
Cr	      6.31359      4.06478      6.10592         0.012198      0.098908     -0.041525
Co	      2.19178      6.07981      8.13133        -0.050075      0.023049      0.002059
Co	      4.31826      6.09441      2.04871         0.053304      0.101206      0.146916
Co	      6.40378      6.18158      4.14004        -0.464085     -0.455982     -0.553634
Cu	      6.38394      0.08308      6.14160        -0.035811      0.163363     -0.024037
Ni	      8.48919      4.11213      8.12911         0.000745      0.010266      0.087022
O	      4.32865      8.37026      6.19240         0.016338     -0.204578     -0.012515
O	      1.95955      1.97795      2.06675         0.163469     -0.009979      0.782052
O	      4.44790      4.17374      1.92012         0.064978     -0.028978      0.014915
O	      4.04970      1.99878      4.01165        -0.026769     -0.184270      0.212049
O	      6.46807      4.08508      4.02526        -0.116276      0.685936     -0.015999
O	      6.28914      2.00028      6.25492         0.019271      0.024739      0.006868
O	      8.29395      4.09701      6.12033        -0.130508     -0.100446     -0.045914
O	      2.19808      4.15374      4.00527         0.013747     -0.463688     -0.029401
O	      4.45686      6.11186      3.96681         0.166098     -0.025787      0.138523
O	      4.34295      4.03211      6.27557        -0.098899      0.023816      0.122693
O	      6.32687      6.05139      6.09847         0.179361      0.053113     -0.716015
O	      6.29333      4.01355      8.10921        -0.114762      0.035963      0.034586
O	      8.66952      6.18022      8.32302        -0.002278      0.098838      0.116159
O	      2.36882      6.16395      6.16779         0.138064      0.051088     -0.136107
O	      4.17521      5.99980      8.26645         0.006128     -0.051083     -0.099331
O	      6.61817      8.24571      8.16124         0.004584      0.008068      0.042479
O	      6.27872      6.16077     10.38032        -0.018751      0.023425     -0.105675
O	      8.56127      8.12038     10.11244        -0.053617     -0.080420      0.015446
