# total energy = -91.52608126 eV
 
CRYSTAL
PRIMVEC
2.069568 4.287663 2.107343 
4.273206 -4.355673 0.001591 
4.256951 -0.014719 -4.303335 
PRIMCOORD
16 1
Li	      2.32283      0.10215     -2.17084         0.341888     -0.428065     -0.464309
Li	      2.32679     -2.15533      0.00253         0.100444     -0.482631     -0.385640
Li	      4.35865      0.02539     -0.00110         0.231633      0.446059      0.107466
Li	      4.39346     -2.18638     -2.20055        -0.105154      0.374755      0.100908
Mn	      0.34076     -0.00091     -0.07589        -5.157941     -0.246418      1.353869
Mn	      2.20878      2.21504     -0.05253         2.262744     -0.448964     -0.562138
Ni	      4.34533      2.19644     -2.22617         0.448305     -0.343344      0.746627
Ni	      6.62732     -0.03309     -2.20696        -0.302797     -0.280096      0.321562
O	      6.54881     -0.21869      0.04329        -0.153523      0.059899     -0.752171
O	      6.59720     -2.21422     -2.07928        -0.624531      0.947212      0.885584
O	      4.21411      2.17428     -0.04621        -0.962872     -0.358238     -0.497711
O	      4.44359     -0.00901     -2.40415         1.134678      0.136531     -0.191155
O	      8.88149     -0.09619     -2.26449        -0.742325     -0.222841     -0.203487
O	      4.48165     -2.44403     -0.02112         0.698777      0.742094     -0.409193
O	      6.58111      2.28493     -2.36810        -0.332575     -0.538001     -0.090222
O	      2.09037      0.12500      0.02986         3.163248      0.642047      0.040010
