# total energy = -214.54345087 eV
 
CRYSTAL
PRIMVEC
0.030721 6.195279 6.200959 
6.327613 0.049406 6.182476 
4.241555 4.141135 0.009639 
PRIMCOORD
36 1
Li	      0.10269      6.15753      6.19933         0.024776      0.011495     -0.036474
Li	      6.25818      4.08518      2.07476        -0.036596      0.127832     -0.029888
Li	      4.29325      6.20454     10.30801         0.006924      0.053508      0.091256
Li	      4.21331      6.14661      2.07330        -0.118590     -0.004245      0.011920
Li	      4.26481      4.14517      4.07471        -0.047482      0.023062      0.086759
Li	      8.40296      6.28549     10.28195         0.060884     -0.034258     -0.049559
Li	      6.36021      8.35086      6.29542         0.052340     -0.028210     -0.076010
Li	      8.44701      8.28473      8.30805         0.055195     -0.124637     -0.047543
Li	      6.37602      6.29655      8.34595         0.146010     -0.039736     -0.070972
Mn	      6.34930      6.17921      4.14576        -0.048791      0.259339      0.246337
Mn	      6.31779      4.24492     10.26408         0.162961     -0.311244     -0.097984
Cr	      2.15300      4.13041      2.05222        -0.084503      0.455841      0.050690
Cr	      4.17879      6.20392      6.28073        -0.140454     -0.119417     -0.201375
Co	      8.46761      8.27815     12.34196        -0.139763      0.063568     -0.041303
Co	      4.25673      2.16881      6.24954        -0.411593     -0.239922     -0.343643
Co	      6.31663      4.18517      6.20021        -0.092400      0.075728      0.189794
Cu	      4.34967      8.33009      8.28515        -0.114778     -0.009444      0.071798
Cu	      6.39489      8.26763     10.27044         0.056671      0.047009      0.265609
O	      4.32648      6.34391      8.07434         0.022668     -0.001102      0.024072
O	      6.31710      8.31364      8.38917        -0.084192      0.033289      0.134140
O	      2.19866      2.08359      2.17567         0.083327     -0.102940      0.004077
O	      4.14488      4.09646      2.03028         0.082727     -0.118733      0.001466
O	      4.01299      2.10413      4.34903         0.147608     -0.011811     -0.171656
O	      6.33138      4.27203      4.26830         0.006943     -0.266697     -0.104374
O	      6.29408      2.26139      6.04223         0.340070     -0.103723     -0.160484
O	      8.26106      4.16790      6.25336        -0.010108      0.087316     -0.138052
O	      2.01086      4.01901      4.07260        -0.018878      0.051990     -0.038931
O	      4.37992      6.29095      4.21920         0.016262     -0.052039      0.072058
O	      4.36428      4.20887      6.23795         0.112490      0.114326     -0.002767
O	      6.26506      6.14324      6.10815        -0.139204     -0.104579     -0.023829
O	      6.45022      4.13815      8.25751         0.034907     -0.001414     -0.014393
O	      8.47898      6.17776      8.10033         0.014229     -0.168412      0.361362
O	      2.33055      6.19593      6.16474         0.238789      0.035034      0.088397
O	      4.26400      8.19921      6.02740        -0.073485      0.013696      0.104480
O	      6.38599      6.12781     10.35571        -0.045530      0.301578     -0.073619
O	      8.66087      8.31695     10.30452        -0.059432      0.087950     -0.081359
