# total energy = -215.87039519 eV
 
CRYSTAL
PRIMVEC
0.001015 6.063616 6.394992 
6.164315 -0.046046 6.440179 
4.095756 4.060260 -0.017439 
PRIMCOORD
36 1
Li	      6.20016     10.02402      8.58803         0.092457      0.007132     -0.037375
Li	      4.15565      1.97951      2.28062         0.003047     -0.094697     -0.073845
Li	      4.06861      0.02071      4.23565         0.023885     -0.035385     -0.039881
Li	      6.20733      6.03118      4.34218        -0.052122     -0.006535      0.003021
Li	      4.04436      2.01998      6.35781         0.084588     -0.137558      0.050892
Li	      6.12224      4.11967      6.27876        -0.011730      0.038578      0.022685
Li	      2.05703      6.03836      4.28389         0.009399      0.001193      0.001629
Li	      8.13484      8.07696      8.48686         0.026521      0.112837      0.077186
Li	      6.16808      6.08676      8.42459        -0.114485     -0.046438      0.047454
Mn	      6.15263      8.05566     10.54974         0.071020     -0.071766     -0.199810
Mn	     10.23682      6.03404      8.53502        -0.020723      0.031854     -0.042417
Cr	      8.19575      1.99315      6.41154         0.077198     -0.110647      0.044652
Cr	      6.16822      4.01867     10.67815         0.022941     -0.116748      0.027723
Co	      6.14768     -0.03426      6.42391        -0.119127     -0.002621      0.203970
Co	      8.21912      4.03251      8.53422        -0.009079     -0.067160     -0.062110
Co	      6.20876      8.06482      6.47399        -0.028758     -0.202796      0.052517
Co	      4.15385      5.98967      6.75901         0.397598     -0.498904     -1.258955
Cu	      4.12552      4.02269      4.34045        -0.119105      0.105660     -0.028832
O	      4.09106      6.07010      8.51854         0.084248     -0.025651      0.189053
O	      1.94808      2.15776      2.00549        -0.043266      0.077810     -0.011148
O	      4.00643      4.14014      1.90097         0.026241      0.020499     -0.059059
O	      4.23891      2.05833      4.25722        -0.010988     -0.008847      0.069333
O	      6.10659      3.90441      4.23478         0.005469     -0.034445      0.015042
O	      6.20205      1.90639      6.55010        -0.000814     -0.017218     -0.035141
O	      8.31174      3.97921      6.45227         0.056054     -0.024749     -0.066602
O	      2.01881      4.02004      4.37056         0.176536      0.024995     -0.058093
O	      4.11365      6.07567      4.01032         0.025646     -0.020044      0.027385
O	      4.12186      4.08579      6.48210        -0.091558      1.077256      0.404816
O	      6.05721      6.12613      6.40336        -0.759910     -0.044565      0.281123
O	      6.25137      3.92627      8.68059        -0.004607     -0.060231     -0.003200
O	      8.32670      5.90115      8.55574        -0.009248      0.004994      0.016047
O	      1.99047      6.05583      6.43899         0.216689      0.104386      0.009753
O	      4.03383      8.15423      6.24038        -0.011353     -0.080488      0.236566
O	      6.15342      8.04089      8.45516         0.072255      0.003922      0.171392
O	      6.15962      6.05308     10.86490         0.008599      0.090796     -0.000957
O	      8.17658      8.04587     10.78996        -0.073516      0.005581      0.025186
