# total energy = -215.66290466 eV
 
CRYSTAL
PRIMVEC
-0.004785 6.084761 6.074334 
6.365199 -0.010006 6.079300 
4.239793 4.055920 -0.002839 
PRIMCOORD
36 1
Li	      4.24796      4.08673      0.04666        -0.064772      0.018539      0.032743
Li	      2.17097      8.01968      6.12998         0.059021      0.045132      0.010944
Li	      6.27376      4.01528      1.99670         0.035864     -0.005491     -0.015960
Li	      4.35037      8.14924      8.04518         0.026675     -0.059346      0.026813
Li	      4.29362      4.03280      3.99405         0.013927      0.010711     -0.020052
Li	      6.35255      4.09443      6.09858         0.013665     -0.017294     -0.010511
Li	      6.34535      8.10016      6.21160        -0.001793     -0.010389      0.089805
Li	      8.40003      8.11621      8.09519        -0.044907      0.064372     -0.027904
Li	      6.29266      6.15800      8.06908        -0.091635     -0.025358     -0.019290
Mn	      6.32359      2.06323      4.05416        -0.060486      0.195937      0.041105
Mn	      2.13247      6.06264      4.09833         0.045386      0.081531     -0.186389
Cr	      8.51940      4.01441      8.00766         0.049358     -0.069965     -0.105123
Cr	      4.24155      8.11218      4.05247        -0.087478     -0.003717      0.039000
Co	      4.19238      6.09205     10.03988         0.018135     -0.055780      0.967918
Co	      6.38732      2.00190      8.04962         0.025917     -0.147526     -0.141436
Co	      6.36193      6.06518      4.03563         0.131372     -0.220384      0.016579
Co	      4.25442      5.98953      6.18430         0.052293     -0.290759      0.450831
Ni	      4.19211      2.11602      6.06889         0.022190      0.036372      0.183207
O	      1.96915      2.04321      2.06761        -0.013374      0.007689      0.045273
O	      4.14165      4.15160      1.98659        -0.029641      0.069416      0.014878
O	      4.07021      2.01526      4.05575        -0.083622     -0.059686     -0.460981
O	      6.43604      4.09985      4.04717         0.157138     -0.091227     -0.089311
O	      6.20355      2.08799      6.07514         0.285269      0.011273     -0.103547
O	      8.48043      4.18146      6.00328        -0.085508     -0.401412     -0.319962
O	      2.02890      4.02004      3.95514        -0.035773      0.138770     -0.046938
O	      4.37789      6.10762      3.95445        -0.160088      0.053672      0.129073
O	      4.22809      4.13138      6.09237         0.025227      0.889691     -0.063019
O	      6.38927      6.10392      5.94757        -0.419885     -0.004747     -0.045310
O	      6.48370      3.95715      8.14008         0.019235      0.063622      0.051954
O	      8.64961      6.03321      8.17601        -0.078275      0.038709      0.192226
O	      2.19581      6.02550      5.96391         0.079510      0.000971      0.104762
O	      4.25131      7.88950      6.03854         0.027654     -0.148643     -0.039452
O	      4.28689      6.05517      8.20962        -0.057101      0.109918     -0.467840
O	      6.35072      8.11313      8.29215         0.036230     -0.014700      0.009622
O	      6.35546      6.08525     10.17093         0.096085     -0.145954     -0.089512
O	      8.56710      8.05508     10.17648         0.094187     -0.063946     -0.154195
