# total energy = -218.84396494 eV
 
CRYSTAL
PRIMVEC
0.002095 6.305228 6.100652 
6.251236 0.000500 6.102647 
4.170289 4.207459 -0.003354 
PRIMCOORD
36 1
Li	      8.33197      8.35639     12.15364         0.013171     -0.039662      0.086271
Li	      6.28451     10.46612      8.17513        -0.041864     -0.027265      0.042295
Li	      6.29465      8.41923     10.10565        -0.021341      0.007561     -0.048324
Li	      2.11153      2.09851      4.07214        -0.006541     -0.023435     -0.125532
Li	      4.19001      4.18323      4.10211         0.011516      0.062118     -0.118362
Li	      6.21906      4.24407     10.12583        -0.021702     -0.088447     -0.113064
Li	      8.30785      6.33958     10.12024         0.063668      0.042605     -0.086899
Li	      8.26638      8.40492      8.15102        -0.070531     -0.050880      0.076685
Li	      6.25906      6.34843      8.14101        -0.007940      0.071772      0.049818
Mn	      6.28756      6.31957     12.17265         0.043261      0.068864      0.094744
Mn	      2.09039      4.20183      2.09659        -0.026976     -0.253279      0.215174
Cr	      8.30396     10.40045     10.14398        -0.148769     -0.021129     -0.182017
Cr	      2.08631      4.18126      6.04543        -0.052491      0.121752      0.517068
Co	      4.23140      8.35599      8.24017        -0.755746      0.378091     -0.817315
Co	      4.19776      6.32756      2.18585         0.070364     -0.079504     -0.568810
Co	      4.16106      2.12218      6.09890        -0.040025      0.256926     -0.210945
Co	      6.17697      4.26457      6.08983         0.020233      0.025093      0.005840
Co	      4.12325      6.32031      6.05558        -0.001400      0.006666     -0.190159
O	      2.18604      2.27357      2.03658         0.301868      0.046950      0.119658
O	      4.07567      4.20008      1.96136         0.085659     -0.690869      0.045861
O	      4.19742      1.94353      4.11823         0.037187     -0.125841     -1.049826
O	      6.41843      4.19357      4.12706         0.087686     -0.039237      0.173924
O	      6.25041      1.98965      6.23522         0.120807     -0.233456      0.028740
O	      8.43824      4.20663      6.15059         0.128892     -0.124187     -0.077748
O	      2.09689      4.23056      3.96465        -0.016404      0.040397     -0.053051
O	      4.14860      6.30491      3.98747         0.056461      0.070523      0.854085
O	      4.10841      4.22731      6.11559        -0.028516      0.139837     -0.011294
O	      6.22745      6.37499      6.09637        -0.148794     -0.049289     -0.087756
O	      6.42991      4.14149      8.06684         0.237654      0.089604     -0.039530
O	      8.36462      6.17008      8.06602        -0.011211     -0.317060      0.586980
O	      1.99693      6.22894      6.06535        -0.143235      0.025052     -0.049530
O	      4.24040      8.47755      6.10163        -0.064333      0.071192      0.757131
O	      4.12691      6.37358      8.18636         0.223215      0.753945     -0.009588
O	      6.09976      8.42369      8.04801         0.061375     -0.162658     -0.028559
O	      6.11278      6.35175     10.28305         0.014583     -0.154364      0.191768
O	      8.35498      8.58373     10.11917         0.030213      0.201617      0.022268
