# total energy = -203.15365670 eV
 
CRYSTAL
PRIMVEC
-0.033358 6.158944 6.266417 
6.210541 -0.005712 6.238622 
4.146999 4.094123 -0.010544 
PRIMCOORD
36 1
Li	      6.21945      6.16379     12.42881        -0.006058     -0.014975     -0.119290
Li	     10.29079      6.17045      8.35669        -0.047924      0.058530      0.126774
Li	      6.11898      6.17314      4.25145        -0.159949      0.018824      0.099538
Li	      4.11585      2.09881      6.28380        -0.155521     -0.024980      0.074981
Li	      4.11265      8.17693      4.25113         0.003944     -0.089073     -0.130276
Li	      8.28546      6.17822     10.35470         0.061189     -0.004214     -0.145150
Li	      4.14862      6.13065      6.16308         0.134149     -0.059629     -0.098354
Li	      8.29131      8.12672      8.31145         0.020205     -0.027875      0.113672
Li	      6.28474      6.09888      8.31338         0.049058     -0.034420      0.029616
Mn	      2.05096      0.02774      2.06606         0.185193     -0.173491      0.187200
Mn	      8.22794      4.18415      8.35256        -0.323582      0.230146      0.342877
Cr	      4.12034      8.19011      8.30826         0.160114     -0.054851      0.391422
Cr	      8.31815      4.09105      4.19402         0.110743      0.209051     -0.194553
Cu	      6.13803      4.15679      6.30938        -0.089606      0.344131      0.093847
Ni	      2.05856      8.17129      6.20884        -0.216515     -0.285840     -0.049742
Ni	      6.21228      8.17913     10.43275         0.027462     -0.285107     -0.217308
Ni	      4.10714      4.12628      4.21537        -0.015069      1.297024      0.382047
Ni	      2.05698      4.04693      6.20588        -0.003874     -0.127693     -0.105768
O	      6.18154      6.14809      6.27172        -0.036206     -0.218673      0.056445
O	      2.14468      2.01239      2.02602        -0.080414      0.030646     -0.261220
O	      4.15891      4.04357      2.13553        -0.005278     -0.052245     -0.052114
O	      4.18482      2.03480      4.06015        -0.230588      0.189789      0.045671
O	      6.24740      4.07427      4.03249        -0.238214      0.131272     -0.029952
O	      6.28632      2.15573      6.13221         0.798664     -0.011587      0.570979
O	      8.22940      4.06250      6.28859         0.170732     -0.340740      0.100821
O	      2.07529      4.08548      4.03410         0.085011     -0.051180     -0.102338
O	      4.10689      6.03219      4.16398         0.062468     -0.689057     -0.113662
O	      4.12824      4.09047      6.18821         0.044924     -0.243363     -0.211615
O	      6.36256      4.07366      8.31609         0.215164      0.073622     -0.083380
O	      8.29327      5.99239      8.31204         0.065510     -0.212757     -0.078169
O	      2.01745      6.12640      6.43298         0.033601      0.731795     -0.062933
O	      4.13037      8.18879      6.35322        -0.778365      0.047989     -0.370886
O	      3.95388      6.20269      8.46818        -0.190496     -0.032196     -0.212782
O	      6.12665      8.34103      8.33556        -0.022957      0.209973     -0.299151
O	      6.05009      6.21083     10.42268         0.213138     -0.219598     -0.020147
O	      8.24995      8.28632     10.41933         0.159346     -0.319248      0.342899
