# total energy = -204.13663960 eV
 
CRYSTAL
PRIMVEC
-0.005365 6.259285 6.371394 
5.974052 0.015160 6.349948 
3.987745 4.164554 0.004479 
PRIMCOORD
36 1
Li	      1.98269      2.10188      0.13209        -0.031912     -0.009738      0.109192
Li	      1.97990      0.10738      2.13558         0.033057     -0.001438     -0.066754
Li	      6.01318      2.15600      8.39603         0.072447      0.031264      0.024297
Li	      1.98582      4.05844      2.13945         0.066929     -0.158704      0.045403
Li	      1.97770      2.16044      4.19173        -0.026195      0.015696     -0.066468
Li	      7.95309      6.20056      6.42882        -0.009350      0.025047      0.038273
Li	      5.98052      4.22367      6.37438         0.066263     -0.049784     -0.026810
Li	      7.98078      6.22126     10.50585         0.048053     -0.017364      0.010685
Li	      2.00154      4.13421      6.30213         0.007585      0.008092     -0.095991
Mn	      3.93918      4.19491      4.18062        -0.116374      0.075045     -0.211025
Mn	      3.97316      6.26940      6.32149        -0.000179     -0.044621     -0.203723
Cr	      0.03183      0.07373      0.08212         0.145552      0.246576      0.178943
Cr	      0.01324      4.18168      4.24983         0.181981     -0.068170      0.116871
Cu	      7.89271      4.19841      4.28488        -0.004126      0.107316      0.369915
Cu	      5.98989      8.32273     10.63769         0.106391      0.059710      0.084110
Cu	      7.94403      8.30856      8.43789         0.009397      0.056095     -0.057629
Ni	      3.96035      2.07904      2.11855        -0.157056     -0.034014     -0.225465
Ni	      6.01911      6.22824      8.41967         0.015710     -0.019190     -0.076766
O	      7.95852      6.42013      8.44897         0.413977      0.379723      0.106650
O	      5.99650      8.25174      8.60876         0.458460      0.210920      0.072676
O	      7.96969      8.55104     10.70354         0.009017      0.028395      0.032430
O	      2.04866      2.06001      2.15453        -0.272147     -0.058417      0.074466
O	      4.01712      4.09996      2.11498         0.039134      0.220906      0.084298
O	      4.02757      1.96924      4.18996        -0.089912     -0.133173      0.076399
O	      5.91270      4.05036      4.25190         0.258868      0.083084     -0.027330
O	      5.99696      1.95287      6.28997        -0.136953     -0.135729      0.095117
O	      8.18497      4.15174      6.48490        -0.281339      0.071095     -0.291458
O	      2.02100      4.21357      4.18535        -0.193893     -0.013865     -0.101117
O	      3.95315      6.38135      4.38704         0.072874     -0.121536      0.182732
O	      3.94491      4.36291      6.14384         0.127263      0.029762     -0.061290
O	      5.86732      6.25727      6.38320        -0.310891     -0.044157     -0.258703
O	      5.89327      4.21788      8.59420        -0.377334     -0.230713     -0.039489
O	      1.90840      6.23246      6.38407         0.371105     -0.018958     -0.062447
O	      3.99878      8.28638      6.32917         0.037297     -0.014528     -0.129586
O	      3.98600      6.19604      8.25874        -0.215121     -0.503052      0.086650
O	      5.96659      6.24594     10.71344        -0.318578      0.028423      0.212944
