# total energy = -205.94256413 eV
 
CRYSTAL
PRIMVEC
0.009838 6.189336 6.260102 
6.208816 0.011424 6.258476 
4.141421 4.127105 0.005386 
PRIMCOORD
36 1
Li	      2.08377      2.04235      0.12467        -0.012536      0.029721     -0.005390
Li	      4.07127      2.08843      2.06218        -0.033814      0.031820      0.052248
Li	      6.17572      2.13115      4.16909        -0.031267      0.013080      0.076826
Li	      2.02746      4.00892      2.16105         0.039411     -0.046995     -0.020308
Li	      2.05620      2.07415      4.12142         0.011969     -0.050255      0.036028
Li	      4.14308      4.14582      4.10210         0.047048     -0.017510     -0.073787
Li	      6.17132      4.13400      6.30969         0.000042     -0.012926     -0.119813
Li	      4.21176      6.23846      6.20441         0.037963     -0.025176     -0.089435
Li	      6.21447      6.17082      8.27554        -0.013446      0.012663     -0.018057
Mn	      8.25031      4.12631      4.18374         0.029820     -0.011796      0.169612
Mn	      8.24872      6.20355      6.25418        -0.014999     -0.071480     -0.087063
Cr	      4.14083      4.11324      0.06533         0.000453      0.017500     -0.281358
Cr	      8.27022      6.24907     10.38911        -0.077191     -0.032790      0.083785
Cu	      2.09025      0.06203      2.12455        -0.051958     -0.042375     -0.271418
Cu	      4.15077      8.23477      4.18658         0.073980     -0.008926      0.119494
Cu	      2.10233      4.10090      6.23106        -0.007219      0.090873     -0.109056
Cu	      4.17002      4.17399      8.29056        -0.000196      0.041307     -0.042288
Ni	      0.03724      2.07350      2.10376         0.122269     -0.140164     -0.040030
O	      6.10404      4.11922      8.44619        -0.149656      0.212803     -0.190605
O	      4.25462      8.28599      6.22971        -0.164853     -0.001730      0.124650
O	      4.15119      6.20705      8.53835         0.066330     -0.103945     -0.005514
O	      6.36852      8.38825      8.22075         0.191487     -0.206463      0.247440
O	      2.05223      2.00306      2.08042         0.160040      0.145781     -0.020338
O	      4.24060      4.11439      2.03148        -0.179943     -0.086214      0.300742
O	      4.15614      1.90155      4.32452        -0.001700     -0.005485     -0.037388
O	      6.37851      4.10079      4.10953         0.082622     -0.032337      0.432601
O	      6.04107      1.99902      6.29234         0.007074      0.042004     -0.057436
O	      8.31027      4.21853      6.18618        -0.063853      0.015098     -0.049344
O	      1.99326      4.24327      4.18081         0.159872     -0.086608     -0.159035
O	      4.02767      6.26503      4.16706         0.109838     -0.220307      0.106323
O	      4.11479      3.96147      6.08727         0.120924      0.000484      0.075797
O	      6.33098      6.24503      6.26564         0.047840     -0.217524     -0.008971
O	      8.28204      6.21223      8.31455        -0.199184      0.218933     -0.152788
O	      2.02011      6.13695      6.15568         0.014720      0.207118      0.124068
O	      6.17201      6.16336     10.51898        -0.124657      0.148564     -0.007737
O	      8.34973      8.31047     10.62292        -0.197228      0.193257     -0.102454
