# total energy = -205.21360340 eV
 
CRYSTAL
PRIMVEC
0.048230 6.332305 6.170229 
6.249747 0.062425 6.156390 
4.206342 4.252487 0.001800 
PRIMCOORD
36 1
Li	      6.37456     10.50579      8.16582         0.075742      0.008607      0.067256
Li	      4.17560      6.33871      2.08433         0.006874      0.019714      0.052891
Li	      4.19213      4.33551      4.21042         0.031839      0.040770      0.081672
Li	      4.15879      2.31297      6.22788         0.014731      0.114458     -0.015076
Li	      2.17002      6.35363      4.12350         0.009453     -0.044097     -0.018652
Li	      2.24722      4.25268      6.25440         0.075494      0.014220     -0.047172
Li	      4.21875      6.25945      6.16032         0.053355     -0.028817      0.106633
Li	      8.34376      8.49299      8.14413         0.027274      0.070642     -0.033147
Li	      6.28107      6.46123      8.14482        -0.042530     -0.044125     -0.065106
Mn	      2.12113      8.39273      6.18855        -0.086424     -0.276609      0.013224
Mn	      6.28717      6.39448      4.14718         0.108900     -0.108672      0.008751
Cr	      8.37797      4.41363      8.21546        -0.153605      0.157222      0.508614
Cr	      4.22903      8.44589      4.10391        -0.037302     -0.013554     -0.066865
Cu	      4.26799     10.57705      6.18712         0.106655      0.035413     -0.118036
Cu	      4.26944      8.43126      8.21238        -0.050310     -0.121925     -0.035131
Cu	      4.22454      6.37362     10.23237        -0.285643      0.011823     -0.321705
Cu	      6.33898      8.49534     10.21075        -0.025477      0.088609     -0.139941
Cu	      6.20376      4.32882      6.17359        -0.194921     -0.066486      0.271374
O	      8.42267      6.20475      8.24749         0.028301     -0.150771     -0.043877
O	      2.03348      6.48711      6.15644        -0.104394      0.005664     -0.012822
O	      4.22570      6.47172      8.29732        -0.007037     -0.081398     -0.296877
O	      6.22364      8.50089      8.31424         0.196118     -0.017245      0.002377
O	      6.20451      6.29323     10.36370         0.260196     -0.278409      0.223132
O	      2.15371      2.23781      2.16026        -0.098250      0.109986      0.033411
O	      4.06065      4.15129      1.99413        -0.219914      0.108475     -0.109641
O	      4.09745      2.05779      4.05022        -0.048264      0.204464      0.165414
O	      6.34009      4.44805      4.16717         0.150892      0.096690     -0.371462
O	      6.35688      2.28870      6.01262        -0.072441     -0.029224      0.061815
O	      8.35620      4.15603      6.21462        -0.045048      0.041171     -0.009307
O	      2.05627      4.12911      4.07503         0.000902      0.107032     -0.152180
O	      4.38313      6.45389      4.08099        -0.105434      0.022703      0.014715
O	      4.27845      4.26951      6.19433        -0.135273     -0.005040     -0.012822
O	      6.34239      6.34992      6.04413         0.049156     -0.001280      0.014270
O	      6.46351      4.25658      8.22929         0.439773     -0.024894      0.254790
O	      4.07953      8.36161      6.15339         0.022888      0.111100     -0.121598
O	      8.47230      8.61694     10.16990         0.053725     -0.076216      0.111076
