# total energy = -212.96480632 eV
 
CRYSTAL
PRIMVEC
-0.021905 6.212701 6.179675 
6.237508 -0.015358 6.173292 
4.151987 4.131129 -0.003833 
PRIMCOORD
36 1
Li	     10.26598      4.12481      6.20239        -0.040316      0.052555     -0.004508
Li	      4.15150      2.03222      2.13484        -0.086450     -0.084900      0.076120
Li	      8.25748      4.19250      4.15535        -0.033454      0.009439     -0.045118
Li	      2.23275      2.00679      4.20392         0.087920     -0.073880     -0.019684
Li	      4.20727      4.00962      4.14834         0.065659     -0.067622      0.033517
Li	      8.20427      6.13876      6.14735         0.048305      0.028010     -0.001120
Li	      6.30218      4.20630      6.15925         0.110278     -0.085040     -0.021890
Li	      4.12316      4.17069      8.15002         0.035235      0.060150     -0.033624
Li	      6.21438      6.17925      8.15139        -0.015591     -0.055188      0.055796
Mn	      6.22844     10.32386      8.24434         0.252794      0.252127      0.219146
Mn	      6.20815      4.16339     10.27672        -0.196055      0.014847     -0.082817
Cr	      6.23203      2.05511      8.17919        -0.024313      0.016141      0.003619
Cr	      8.29796      6.19577     10.29083         0.024107      0.131546     -0.080334
Fe	      6.06354      2.04795      4.18590        -0.010923     -0.052061      0.178784
Co	      6.23571      8.24026      6.19268         0.528474     -0.317091      0.380873
Ni	      8.32131      2.12560      6.17495        -0.021574     -0.089207     -0.015019
Ni	      2.13306      4.11507      2.01272         0.035078      0.034052      0.005629
Ni	      4.19781      6.17033      6.20771         0.129715     -0.086701      0.030541
O	      2.01869      1.96863      2.04160        -0.010233     -0.077890      0.049561
O	      4.24091      4.21855      2.05627         0.030756     -0.073180      0.024269
O	      4.23491      2.03749      4.13276        -0.127414     -0.028772     -0.109243
O	      6.25097      4.01645      3.95218        -0.017106      0.102411     -0.027587
O	      6.28127      2.08523      6.15156        -0.034475     -0.049880     -0.001053
O	      8.30599      4.07091      6.23076         0.006877      0.169969     -0.009839
O	      1.93399      4.19748      4.20672        -0.057763      0.031233     -0.223126
O	      4.07931      6.35225      4.06578        -0.008698      0.082275     -0.211676
O	      3.96891      4.22561      6.14181        -0.618734     -0.755720     -0.145273
O	      6.16962      6.33763      6.19290         0.518092      0.279816     -0.045200
O	      6.28179      4.07204      8.36447        -0.026112      0.055308      0.017302
O	      8.40622      6.13644      8.32991        -0.060118      0.111570      0.021551
O	      2.10808      6.14181      6.20163        -0.460018     -0.048707     -0.015998
O	      4.20962      8.20755      6.04450         0.139430      0.655380     -0.177120
O	      3.95661      6.22403      8.19076        -0.192872     -0.002810      0.378113
O	      6.19180      8.39375      8.16251        -0.125829     -0.050940     -0.046886
O	      6.29870      6.14922     10.26691         0.087513     -0.077858     -0.041278
O	      8.39708      8.18860     10.31882         0.067814     -0.009383     -0.116426
