# total energy = -215.25748962 eV
 
CRYSTAL
PRIMVEC
0.033216 6.279045 6.150621 
6.201863 0.037335 6.146410 
4.156978 4.205933 0.002734 
PRIMCOORD
36 1
Li	      4.20495      8.36402      8.16334         0.037175     -0.096491     -0.002056
Li	      4.10767      0.04992      4.05553        -0.067615      0.068316     -0.111744
Li	      6.22422      2.16628      8.20802        -0.057889     -0.095269      0.024966
Li	      2.09751      4.15668      2.04031         0.040862      0.075327     -0.027280
Li	      4.18413      4.20612      4.15502        -0.029269     -0.011518      0.036668
Li	      6.17968      4.26984      6.16996        -0.025211      0.069536     -0.011532
Li	      6.29113      8.34964      6.18459         0.101161     -0.043563      0.012778
Li	      4.24144      6.23733      6.18415         0.046151     -0.185663      0.162826
Li	      6.15804      6.30648      8.14068        -0.086257      0.091118     -0.059206
Mn	      4.13571      4.19475      0.01520        -0.018541      0.176187      0.544107
Mn	      8.27534      6.36450      6.17074        -0.232192      0.216731      0.325029
Cr	      2.05614      2.12283      4.08374         0.216906     -0.074574      0.084459
Cr	      2.13863      6.23032      4.08503         0.052652     -0.059689     -0.280027
Fe	      2.14454      6.28121      8.21358         0.312896     -0.120230     -0.159285
Co	      6.17248      2.14966      4.07899         0.230720      0.225419     -0.330331
Co	      6.20225      4.20261     10.20188         0.539244     -0.190212     -1.031687
Cu	      2.07784      2.15672      0.06809        -0.099555      0.070991      0.132430
Ni	      4.16532      4.23423      8.16908        -0.266246      0.094911     -0.055380
O	      6.09082      4.25945      8.33090         1.042078     -0.065721      0.796465
O	      2.10206      2.02633      2.04621        -0.126017      0.128133      0.108448
O	      4.24927      4.17039      1.89030        -0.190823      0.080087     -0.311788
O	      4.07953      2.13293      4.24147         0.388570      0.034763     -0.073110
O	      6.21056      4.27361      4.03511         0.032526     -0.425496      0.302459
O	      6.13837      2.01984      6.05188         0.077187     -0.030795     -0.023613
O	      8.42034      4.39128      6.18877         0.113976     -0.053607     -0.108455
O	      1.98776      4.20075      4.02265         0.027242     -0.126063      0.210669
O	      4.16618      6.30578      4.16949         0.020438      0.449108     -0.011447
O	      4.17673      4.04284      6.16416        -0.035000     -0.108597     -0.258715
O	      6.37156      6.30298      6.07963        -0.037926      0.023800     -0.100814
O	      8.30673      6.45117      8.17577         0.046968     -0.771760      0.011519
O	      1.96207      6.20827      6.09413        -0.086870     -0.054583     -0.068127
O	      4.13132      8.55875      6.05119        -0.050242      0.174755     -0.270772
O	      4.11237      6.19416      8.14929        -0.020635      0.870327     -0.040615
O	      6.35623      8.46392      8.31371        -0.993832     -0.198775      0.516991
O	      6.32543      6.41424     10.34660        -0.140615     -0.095425     -0.178239
O	      8.34213      8.31654     10.35543        -0.762017     -0.041476      0.244408
