# total energy = -215.54197939 eV
 
CRYSTAL
PRIMVEC
-0.010019 6.106926 6.220035 
6.354768 -0.011870 6.220264 
4.221678 4.054665 0.008462 
PRIMCOORD
36 1
Li	      0.07035      6.14965      6.24652        -0.069262     -0.016788     -0.020939
Li	      6.20547      4.09350      2.05822        -0.006662      0.007060      0.056722
Li	      4.21608      2.08185      2.12995         0.037441     -0.044373      0.244181
Li	      6.25473      2.00252      4.21679        -0.139693      0.025658     -0.023937
Li	      0.18833      2.01481      2.08476         0.080056     -0.054032     -0.031908
Li	      4.27681      4.12276      4.13774         0.135490     -0.279882     -0.015995
Li	      4.25851      2.02811      6.18929        -0.063466     -0.074667     -0.180950
Li	      2.34510      6.06115      4.17810        -0.181832      0.099325     -0.002060
Li	      4.16640      6.09868      6.12235        -0.021042     -0.088920      0.163875
Mn	      2.13415      8.08314      6.22251         0.001750      0.183243     -0.139445
Mn	      8.33658      8.07944      8.28935        -0.357589      0.237087      0.479478
Cr	      6.36543      6.07214      4.16982         0.849096     -0.431369     -0.084296
Cr	      6.26488      8.16503      6.22350         0.169428      0.195829     -0.019988
Fe	      2.41336      4.12666      2.09304        -0.322012      0.138430     -0.272960
Co	      8.43606     10.13819     10.36909        -0.356981     -0.161888     -0.073562
Co	      6.22628      6.07145      8.28254        -0.021335      0.226943      0.301225
Cu	      6.30352      4.01505      6.21622         0.052194      0.127002     -0.243229
Cu	      4.22930      8.07612      4.15681        -0.351119      0.546344     -0.257888
O	      6.56430      2.08604      6.24338        -0.147526      0.318910      0.127608
O	      4.38921      6.15366      4.12398        -0.257866      0.404565     -0.019753
O	      2.16779      2.17255      2.16174        -0.082607     -0.130314     -0.028859
O	      4.23153      4.09842      2.11457         0.310746      0.177710     -0.028948
O	      4.17758      1.83838      4.18212        -0.171608      0.749300      0.063790
O	      6.49694      4.09226      4.23490        -0.251492      0.030060      0.229246
O	      8.59726      3.95463      6.17586        -0.087555     -0.172284      0.186242
O	      2.23528      4.04540      4.15772        -0.271033      0.121038      0.243432
O	      4.03309      4.05946      6.37238         0.115409      0.002112     -0.016601
O	      6.28077      6.11487      6.28650        -0.102465     -0.287668     -0.038004
O	      6.08592      4.14599      8.24667         0.321479     -0.480026      0.132889
O	      8.19026      6.07879      8.33314         0.157199      0.033614     -0.034629
O	      2.09817      6.13340      6.17665        -0.008435     -0.053463      0.064099
O	      4.18777      8.12256      6.15820         0.120461     -0.063126     -0.284684
O	      4.27574      5.99995      8.41114        -0.130745     -0.208490     -0.130009
O	      6.38113      8.00968      8.23966         0.017883      0.077975     -0.122742
O	      6.07287      6.00721     10.18576         0.599838     -0.551902     -0.046873
O	      8.30694      8.21911     10.23860         0.433855     -0.603015     -0.174528
