# total energy = -214.45128484 eV
 
CRYSTAL
PRIMVEC
0.058844 6.018125 6.214882 
6.352682 0.012516 6.260630 
4.252821 4.060744 -0.009196 
PRIMCOORD
36 1
Li	      4.27049      9.98817      6.22936         0.004011      0.012316      0.019373
Li	      6.38684      4.03835      2.12222        -0.025545      0.017777      0.040432
Li	      4.43166      8.06112      8.24414        -0.079052      0.063886     -0.020202
Li	      4.23998      6.04759     10.30803        -0.028340     -0.074397     -0.000043
Li	      2.17610      4.01576      2.04603         0.036462      0.009592      0.027548
Li	      4.24239      4.00979      4.09410         0.080260     -0.022927     -0.009468
Li	      6.42128      4.10064     10.39806        -0.072080     -0.043016      0.017587
Li	      6.38131      8.09197      6.29833        -0.028062      0.004649     -0.086201
Li	      6.26544      6.09433      8.37806         0.042269     -0.048827     -0.011200
Mn	      8.48402      6.03036      6.24325         0.026921     -0.059080     -0.208100
Mn	      2.15709      5.97873      4.13987        -0.129113      0.338385      0.108275
Cr	      2.15060      2.02902      4.12314         0.122467     -0.095587     -0.148543
Cr	      4.26707      6.07152      6.26913         0.062903      0.020607     -0.066836
Fe	      0.07681      1.93852      2.04770         0.004848      0.111567      0.209826
Co	      2.15353      2.05308      0.00984         0.091984      0.035069     -0.286865
Co	      6.41788      8.11487     10.28611        -0.237667     -0.303362      0.220417
Ni	      6.38188      4.04145      6.25817         0.000184      0.126127     -0.104481
Ni	      4.25281      4.06631      8.32286         0.002989     -0.015952      0.227804
O	      2.02828      2.02550      2.07204         0.030189      0.019404     -0.059117
O	      4.29236      4.20818      2.04211        -0.013829     -0.357954     -0.039198
O	      4.18996      2.00405      4.28876        -0.416582      0.068418      0.072895
O	      6.37200      4.02954      4.17953         0.012998      0.166823      0.173549
O	      6.51324      2.02103      6.24434        -0.002691     -0.091391     -0.494852
O	      8.44811      4.07525      6.23548         0.101150     -0.054125      0.134515
O	      2.13618      4.09097      4.16783        -0.033326     -0.046199      0.001969
O	      4.26231      6.04590      4.16328        -0.051330      0.032747     -0.010001
O	      4.29124      3.94182      6.27486        -0.130987      0.046461      0.042774
O	      6.29000      6.08002      6.11455        -0.011834      0.113030      0.054798
O	      6.30923      3.86889      8.32097         0.027301      0.160733     -0.038712
O	      8.64283      6.06377      8.35166        -0.069768     -0.024827      0.047911
O	      2.26315      6.12091      6.07749        -0.012526     -0.031802     -0.055570
O	      4.10937      8.02103      6.23766        -0.040593      0.000945     -0.018135
O	      4.30323      6.03657      8.22700        -0.006600      0.013512     -0.153782
O	      6.46482      8.08660      8.37940         0.083226     -0.051038      0.575504
O	      6.62909      6.14660     10.39152         0.053234      0.145731     -0.160351
O	      8.48274      7.96944     10.50508         0.606528     -0.187293     -0.003521
