# total energy = -216.40111559 eV
 
CRYSTAL
PRIMVEC
-0.012197 6.312146 6.178062 
6.135952 -0.008604 6.174397 
4.091468 4.206392 -0.006243 
PRIMCOORD
36 1
Li	      6.11259      0.05321      6.14351        -0.048340      0.070063      0.023172
Li	      6.13415      2.09446      4.16249         0.009749      0.005248     -0.000097
Li	      6.10558      2.14775      8.25002        -0.007461      0.043288      0.007827
Li	      6.09708      6.31274      4.11631        -0.002154     -0.018511     -0.036980
Li	      4.10630      4.27346      4.08366         0.078161      0.014498     -0.084835
Li	      6.15844      4.13982      6.16007         0.057134     -0.003363      0.067465
Li	      6.13635      4.18445     10.25543        -0.075761      0.005651     -0.133189
Li	      2.00865      6.26097      4.11326        -0.020187     -0.003479     -0.081695
Li	      6.18479      6.23362      8.28267         0.059846     -0.137333     -0.005691
Mn	      4.13936      6.32026      6.10048         0.087257     -0.085778     -0.310185
Mn	      8.25386      8.33560      8.28264         0.377526     -0.334830      0.059074
Cr	      6.09085      4.22049      2.06409        -0.375757      0.304016      0.165136
Cr	      4.13319      6.32104     10.29888         0.073319      0.080357      0.105418
Fe	      4.20356      2.06209      6.16076        -0.184233     -0.160987      0.298160
Co	      4.08223      8.39884      8.24865        -0.142540      0.339748      0.251571
Co	      1.99856      4.20751      2.17701        -0.002393     -0.010421     -0.219044
Co	      2.01964      4.22601      6.05292         0.016595     -0.104370     -1.091492
Ni	      8.10505      2.11487      6.13061        -0.199935      0.014728      0.078718
O	      2.14512      2.09346      2.03023         0.136028     -0.008748     -0.023351
O	      4.09246      4.01252      2.06090         0.293140     -0.145301     -0.038377
O	      4.09514      1.97897      4.08646        -0.033196     -0.043714     -0.107065
O	      6.27536      4.19759      4.01227         0.079834      0.031103     -0.046098
O	      6.08429      2.08620      6.18231         0.297306      0.020346     -0.105976
O	      8.14734      4.24926      6.11451        -0.026926     -0.064347     -0.188601
O	      2.02744      4.22691      4.19798        -0.040055      0.135371      0.480570
O	      4.07862      6.30757      4.28057         0.000523      0.008621      0.493380
O	      4.13523      4.29244      6.28276        -0.373636      0.053107     -0.293038
O	      6.07303      6.46255      6.16340        -0.044246     -0.489128      0.148833
O	      6.08801      4.18142      8.26248        -0.239772     -0.019349      0.065813
O	      8.16045      6.20660      8.15391         0.025108      0.036773     -0.015125
O	      2.15270      6.27181      6.21237         0.067395      0.393692      0.073056
O	      4.02095      8.25861      6.31029         0.294636      0.048742     -0.113852
O	      4.03039      6.43243      8.21636         0.050293     -0.029801     -0.017888
O	      6.11472      8.51994      8.07284        -0.119561      0.035453      0.295109
O	      5.95266      6.30717     10.29655        -0.110147     -0.021738      0.014837
O	      8.14083      8.55581     10.21795         0.042452      0.040396      0.284439
