# total energy = -220.52402132 eV
 
CRYSTAL
PRIMVEC
0.019336 6.160724 6.194135 
6.297407 -0.020907 6.234784 
4.195304 4.131226 -0.011041 
PRIMCOORD
36 1
Li	      4.19507      4.09260      0.06536         0.046697     -0.086002      0.091735
Li	      8.35026      2.09068      6.28049        -0.044895      0.035437      0.031223
Li	      4.21574      8.26340      8.21719         0.018589      0.008923      0.004947
Li	      6.30592      2.03320      4.20790        -0.000936      0.010607      0.028697
Li	      6.29531      1.99400      8.22545         0.032398     -0.045954     -0.030936
Li	      8.39469      4.16345      8.20499        -0.012783      0.056329     -0.046081
Li	      8.46570      6.11656      6.27267         0.047629     -0.040522     -0.051478
Li	     10.47100      8.25297     10.40401        -0.036234     -0.002555      0.096229
Li	      6.38016      6.15058      8.28489        -0.001496      0.026017     -0.035139
Mn	      4.18670      4.06623      4.06460         0.008060      0.064330     -0.012394
Mn	      6.38992      4.01301      6.27249         0.074561     -0.045836     -0.182914
Cr	      4.19606      6.21863      6.22228        -0.068500      0.122460     -0.011451
Cr	      8.41049      8.18512      8.27763        -0.067218      0.038531      0.089430
Fe	      2.12361      2.08650      4.02494        -0.052605     -0.037628      0.171277
Co	      6.30467     10.27305      8.25323        -0.030740      0.024053      0.020176
Co	      4.32826      6.17571     10.37652         0.131112     -0.025303     -0.043792
Co	      8.19747      6.20294     10.28568        -0.105731      0.062797      0.048625
Co	      6.27571      8.21309      6.21973        -0.136418      0.066540      0.002853
O	      2.09246      1.92003      2.13200        -0.032522     -0.082055     -0.244148
O	      4.36153      4.11126      2.13618         0.035920      0.008975     -0.106314
O	      4.13081      2.14009      4.13723         0.024955      0.212641      0.001064
O	      6.36261      4.17012      4.16328         0.169519     -0.040437      0.060616
O	      6.30107      2.21410      6.19582        -0.013687      0.125475      0.042759
O	      8.24852      4.11172      6.21956        -0.161196      0.027418     -0.112905
O	      2.06521      4.09641      4.26758        -0.040931      0.091769      0.052317
O	      4.17111      6.04751      4.21535        -0.037321     -0.030437     -0.017345
O	      4.20762      4.14971      6.20160         0.056075      0.007149      0.010491
O	      6.20296      6.19796      6.14135         0.025483     -0.004085     -0.009150
O	      6.22641      4.12179      8.10969         0.060698     -0.006032      0.052544
O	      8.39982      6.20140      8.35642        -0.015192     -0.014365      0.009118
O	      2.16974      6.03325      6.28590         0.001501     -0.122842     -0.005406
O	      4.36910      8.16827      6.21628         0.092361     -0.078059      0.005394
O	      4.08878      6.10024      8.24410         0.021691     -0.056103      0.107131
O	      6.38916      8.31296      8.14229         0.026768      0.011899     -0.015798
O	      6.36894      6.17007     10.39935        -0.018792     -0.002306     -0.009487
O	      8.46205      8.17520     10.25080         0.003182     -0.280828      0.008109
