# total energy = -209.37658367 eV
 
CRYSTAL
PRIMVEC
0.012085 6.218034 6.278778 
6.117819 0.019103 6.271841 
4.099315 4.161658 -0.008069 
PRIMCOORD
36 1
Li	      2.10553      6.21941      8.41657        -0.031683      0.026678      0.029686
Li	      8.12463      4.20611      4.16244        -0.019586     -0.020764      0.032765
Li	      8.16827      4.19855      8.38400         0.006107      0.000149     -0.019422
Li	      6.17618      6.27356      4.30649         0.030656      0.020201     -0.057142
Li	      8.03129      6.26011      6.29793         0.060330     -0.037466     -0.010791
Li	      6.12892      4.29863      6.20027         0.051423     -0.064087     -0.009912
Li	      2.04707      6.18110      4.16295         0.003141      0.006294     -0.003218
Li	      2.11684      4.00855      6.17926        -0.055815     -0.009181     -0.075965
Li	      6.12389      6.25899      8.21829         0.040172     -0.039134      0.002910
Mn	      6.10355      2.10477      4.15213        -0.032459      0.062227      0.030866
Mn	      4.06797      6.23427      2.12323         0.154263     -0.050772      0.004830
Cr	      0.04251      6.21946      6.30194        -0.096819     -0.101920      0.061540
Cr	      0.08770      4.17944      4.16026         0.013082      0.033139      0.053718
Fe	      8.16876      2.14264      6.29440         0.035883      0.076427     -0.021226
Cu	      4.06668      4.19350      8.29070        -0.058622     -0.009088      0.017546
Ni	      4.09881      8.22283      8.38763        -0.082624      0.104084     -0.012141
Ni	      4.03547      4.13362      4.21809        -0.005544      0.042846     -0.082112
Ni	      4.14546      6.17590      6.30122        -0.148676      0.140196     -0.114601
O	      6.07947      6.22294      6.25216         0.085690     -0.030238      0.051672
O	      1.97513      2.09107      1.96818        -0.172485      0.004344      0.284562
O	      4.09122      4.26774      2.05015         0.020915      0.131167     -0.000582
O	      4.19490      2.08230      4.11128         0.117362     -0.081180      0.099942
O	      6.05973      3.96066      4.20451         0.152666     -0.106842     -0.035942
O	      6.13676      2.01807      6.24763        -0.140509      0.070058      0.085489
O	      8.26161      4.03299      6.29020         0.057088      0.303714      0.022678
O	      2.01285      4.17470      4.15170        -0.135169      0.009445     -0.005030
O	      4.13643      6.28791      4.07637        -0.031460      0.082569     -0.198176
O	      4.04988      4.20458      6.25756         0.010724     -0.125268      0.121892
O	      6.07478      4.04489      8.46684         0.031536     -0.001279     -0.066505
O	      8.31662      6.35267      8.33324         0.024943     -0.077776      0.049177
O	      2.06272      6.41553      6.26870         0.011983     -0.343519      0.035037
O	      4.11596      8.34699      6.25166         0.108660      0.025477     -0.080201
O	      4.10210      6.19733      8.30209         0.011994     -0.090334      0.136633
O	      6.17028      8.27627      8.54627         0.023559     -0.009719      0.088467
O	      6.14045      6.24898     10.59049         0.010780      0.086485     -0.136146
O	      8.13805      8.34132     10.57128        -0.051505     -0.026932     -0.280303
