# total energy = -90.46862768 eV
 
CRYSTAL
PRIMVEC
2.089564 4.329089 2.127704 
4.314493 -4.397757 0.001607 
4.298081 -0.014862 -4.344913 
PRIMCOORD
16 1
Li	      2.38812      0.14596     -2.19243         0.416107     -0.550064     -0.570172
Li	      2.39216     -2.15535      0.02314         0.117834     -0.593025     -0.453720
Li	      4.44329      0.02588     -0.00112         0.302788      0.532185      0.139351
Li	      4.47876     -2.22884     -2.24328        -0.135353      0.440778      0.119673
Mn	      0.45078     -0.00174     -0.09877        -7.431635     -0.397725      1.515127
Mn	      2.25167      2.25804     -0.05355         2.661262     -0.455029     -0.583701
Ni	      4.42970      2.23909     -2.26939         0.524697     -0.376041      0.853522
Ni	      6.75600     -0.03373     -2.24982        -0.353923     -0.331320      0.392574
O	      6.67597     -0.22295      0.04413        -0.160863      0.142567     -0.916854
O	      6.72530     -2.25721     -2.11965        -0.716788      1.193679      0.956156
O	      4.29593      2.21650     -0.04711        -1.029684     -0.435116     -0.608803
O	      4.52988     -0.00919     -2.45083         1.420184      0.151023     -0.217556
O	      9.05394     -0.09805     -2.30846        -1.091852     -0.329873     -0.281721
O	      4.56867     -2.49148     -0.02153         0.842386      0.909054     -0.449826
O	      6.70890      2.32929     -2.41408        -0.385889     -0.681249     -0.082749
O	      2.13095      0.12743      0.03045         5.020729      0.780157      0.188697
