# total energy = -209.55951805 eV
 
CRYSTAL
PRIMVEC
-0.011881 6.163874 6.296802 
6.161852 -0.017107 6.301842 
4.113002 4.117942 -0.016609 
PRIMCOORD
36 1
Li	      8.24059      8.21637     12.52849         0.034807     -0.039817     -0.019630
Li	      6.20862     10.22883      8.39485         0.046047     -0.052362      0.045270
Li	      8.20249     10.22342     10.51049        -0.045810     -0.030930     -0.099801
Li	      6.17411      6.13774      4.26036         0.021278     -0.077301     -0.013389
Li	      6.18841      4.14753      6.26659        -0.021663     -0.020736      0.037666
Li	      6.12362      4.16044     10.46537        -0.062917      0.060504     -0.071856
Li	      6.17241      8.19829      6.29923        -0.015218      0.024333      0.113554
Li	      4.10701      4.10973      8.40200         0.012654      0.063118      0.046548
Li	      6.12133      6.17274      8.38385        -0.051495     -0.009495      0.011710
Mn	      4.10310      8.16503      8.36189         0.051452     -0.092566      0.002206
Mn	      6.20616      2.06592      8.37722         0.185496      0.264014      0.074751
Cr	      4.11694      4.08535      4.22049        -0.031147     -0.059045     -0.089296
Cr	      4.14111      6.15806      6.28241        -0.168029      0.116764      0.130090
Fe	      6.21459      8.19314     10.49865         0.047329      0.030388     -0.154701
Cu	      8.18502      4.11134      8.38166        -0.347088     -0.097604      0.125003
Cu	      8.10079      6.16977      6.30563         0.050617      0.033818     -0.056912
Ni	      6.16144      6.11869     12.55805         0.160327     -0.121526     -0.032912
Ni	      2.05231      6.18929      4.20839        -0.037895      0.333632      0.110580
O	      6.21437      3.94537      8.41771        -0.163723     -0.157844     -0.023362
O	      8.35051      6.11676      8.55145         0.254380      0.254842     -0.101179
O	      2.04916      2.12089      2.07869        -0.041618     -0.239080     -0.064832
O	      4.08439      4.12396      2.11196         0.226163      0.048091      0.093651
O	      4.08832      2.08175      3.99173        -0.075786      0.025873      0.049851
O	      6.09495      3.95409      4.20398        -0.151822      0.282702      0.037062
O	      6.05908      2.01140      6.31390        -0.157134      0.100008      0.079143
O	      8.24097      4.19685      6.40218        -0.122610      0.214497      0.194804
O	      2.11787      4.21972      4.11175         0.176360     -0.208278     -0.235177
O	      4.15056      6.08653      4.20626         0.144029     -0.039582      0.025983
O	      4.07951      4.11657      6.20949        -0.000275     -0.135190     -0.039793
O	      6.13212      6.16417      6.29376         0.201555      0.035101      0.009292
O	      2.11672      6.16697      6.16102         0.032779     -0.047220      0.078783
O	      4.11450      8.19558      6.44909         0.021720     -0.077740     -0.091950
O	      4.06043      6.29667      8.28184         0.010508     -0.036577     -0.098017
O	      5.99916      8.21746      8.47864        -0.102930     -0.018853     -0.126983
O	      6.14726      6.24979     10.52924        -0.143915     -0.297578     -0.012158
O	      8.15813      8.16494     10.46409         0.063576     -0.028359      0.066000
