# total energy = -210.70817323 eV
 
CRYSTAL
PRIMVEC
0.033529 6.173990 6.390544 
6.189625 0.028566 6.395888 
4.133547 4.126527 0.011737 
PRIMCOORD
36 1
Li	      2.11293      8.20373      6.38521         0.016138      0.031918     -0.057811
Li	      2.08751      0.03749      2.13448         0.005362     -0.037761      0.045846
Li	      4.15119      6.17450     10.59047         0.034121     -0.104770     -0.040168
Li	      0.05418      2.05566      2.14269         0.085476     -0.006189     -0.056576
Li	      2.09314      2.04270      4.23069         0.016120      0.053196      0.013060
Li	     10.28312      8.25767     10.61244        -0.074869      0.054626     -0.013159
Li	      6.23472      8.23454      6.50331        -0.010274     -0.052166      0.132795
Li	      8.26057      8.23511      8.58477        -0.017962      0.051271      0.067985
Li	      6.19227      6.23466      8.50117        -0.071235      0.002011     -0.028595
Mn	      0.08362      6.14141      6.36908        -0.143995     -0.081819     -0.145384
Mn	      4.12265      6.19878      6.45762         0.099724      0.123550     -0.000493
Cr	      8.21317      4.16340      8.51024         0.004804     -0.149696      0.268218
Cr	      6.19821      4.13272      6.42347         0.083899     -0.009416     -0.132383
Fe	      6.26796      8.27902     10.57073         0.293413     -0.155332      0.129485
Cu	      4.15892      8.22150      8.52682         0.042573     -0.033982      0.063100
Cu	      4.15301      4.15299      4.27195        -0.082795      0.122607     -0.091084
Cu	      8.29722      6.22057     10.62847        -0.117492      0.132323      0.111089
Ni	      8.21323      6.25138      6.40542        -0.049813      0.025605     -0.104517
O	      4.13150      6.26015      8.38246        -0.026346     -0.137145     -0.063153
O	      6.12371      8.24599      8.65394         0.067698     -0.010787     -0.136112
O	      8.23450      8.13968     10.61239        -0.014367      0.594452     -0.019640
O	      2.14206      2.22530      2.16700        -0.150163      0.140104     -0.016414
O	      4.06583      4.09283      1.90884        -0.056248      0.146984      0.137157
O	      4.16123      2.16301      4.27689        -0.104152      0.035287     -0.009850
O	      6.16449      4.10076      4.38898        -0.142182      0.131191      0.169948
O	      6.13203      2.09027      6.31690         0.051151      0.138983      0.017043
O	      8.23986      4.18734      6.46679        -0.190489     -0.069714      0.081780
O	      2.16606      4.26758      4.10056         0.065690     -0.604190     -0.313465
O	      4.09329      6.14533      4.45651         0.191100     -0.165561      0.103090
O	      4.20750      4.21005      6.56466        -0.020770     -0.019909     -0.021546
O	      6.12221      6.13396      6.39458         0.041801     -0.065472      0.032509
O	      6.36457      4.10682      8.45246         0.115878      0.022558     -0.083758
O	      8.31454      6.06354      8.45904         0.019100     -0.028833      0.326659
O	      2.14422      6.16124      6.40270         0.108883     -0.027643     -0.241556
O	      4.17391      8.17075      6.45982         0.010826      0.009675     -0.053995
O	      6.26175      6.20580     10.82872        -0.080606     -0.055957     -0.070104
