# total energy = -210.18465443 eV
 
CRYSTAL
PRIMVEC
0.017286 6.282197 6.469438 
6.138804 0.016268 6.470938 
4.062258 4.158570 0.041395 
PRIMCOORD
36 1
Li	      0.06729      6.19022      6.40298        -0.044075     -0.013312     -0.070182
Li	      4.13354      6.24599     10.73574        -0.031716      0.016777      0.003296
Li	      4.08373      6.29275      2.31914        -0.033366      0.060238     -0.035818
Li	      2.03592      2.09578      4.25658         0.023166     -0.081579     -0.058442
Li	      4.11477      8.31569      4.36575        -0.025787      0.040485      0.031880
Li	      2.05782      6.27767      4.42054        -0.017027      0.043584      0.012464
Li	      1.92019      4.28366      6.30173        -0.014642      0.012947      0.001646
Li	      4.08208      6.34412      6.39512         0.007731     -0.008820      0.000880
Li	      8.24282      8.38678      8.84846         0.036068     -0.003976      0.121397
Mn	      8.14870      6.30285      6.54877        -0.013130     -0.048225     -0.001505
Mn	      6.13971      6.29522      8.69830         0.045437     -0.019845      0.016700
Cr	      2.08295      6.24024      8.55805         0.024457     -0.126611      0.109609
Cr	      4.04034      4.25294      4.32684         0.356535     -0.049918      0.117413
Fe	      2.14414      8.28378      6.41031        -0.171662      0.015368     -0.015639
Cu	      4.07262      8.32868      8.55200         0.082972      0.009012     -0.051514
Cu	      2.04340      4.17649      2.25171        -0.022285      0.024224     -0.025596
Cu	      6.11573      4.20274      6.54124        -0.057909      0.064046     -0.028508
Cu	      6.14132      8.33367     10.82115         0.029418     -0.041945     -0.007427
O	      6.19075      4.40786      8.79439        -0.028464      0.062187      0.121015
O	      6.16470      6.37755     10.59717         0.016509     -0.151877     -0.070516
O	      8.08224      8.39016     10.93925         0.272160      0.016888     -0.070247
O	      2.07721      1.93191      2.02486        -0.149822     -0.070330      0.079306
O	      4.08344      4.06556      2.30848        -0.027780      0.071729      0.014247
O	      4.09052      2.13620      4.57701        -0.143470      0.047337      0.065595
O	      6.00821      4.06731      4.16822        -0.154957      0.135771     -0.152121
O	      6.06397      2.17297      6.43325        -0.037855      0.023812      0.161303
O	      8.10500      4.28817      6.67359         0.074671      0.051748     -0.003959
O	      2.19357      4.09664      4.22933        -0.131276     -0.026672      0.091025
O	      4.11608      6.05482      4.31467        -0.011347     -0.033547      0.005015
O	      4.13757      4.08173      6.33081        -0.063643      0.078364     -0.101382
O	      6.21104      6.23821      6.69339         0.028767      0.053192      0.040173
O	      8.07057      6.44770      8.49116         0.013910      0.119346      0.009938
O	      2.04003      6.30668      6.57383        -0.011590     -0.107137     -0.084250
O	      4.02323      8.39292      6.34831         0.167726     -0.005165     -0.007329
O	      4.16374      6.32537      8.62732         0.015507     -0.134358      0.012333
O	      6.04561      8.31411      8.76722        -0.003231     -0.023738     -0.230800
