# total energy = -210.06699073 eV
 
CRYSTAL
PRIMVEC
0.040849 6.146342 6.220411 
6.216584 0.010857 6.250467 
4.152155 4.125367 -0.000540 
PRIMCOORD
36 1
Li	      4.26193      8.24649      8.24122         0.075883     -0.066478      0.066689
Li	      8.31398      4.11544      8.27021        -0.106843      0.006114     -0.100217
Li	      4.16897      4.08345      4.18752         0.022999     -0.049376      0.144574
Li	      8.27284      6.20407      6.22850        -0.095437     -0.042108     -0.019696
Li	      6.18070      4.15684      6.25639         0.058599      0.004403     -0.029607
Li	      4.19799      8.21352      4.19408        -0.024453     -0.042692     -0.016330
Li	      6.23397      8.21520      6.29034         0.029021     -0.069077      0.019344
Li	      4.19825      6.15023      6.29627         0.034642     -0.007025      0.046517
Li	      6.21729      6.17847      8.22017        -0.016187     -0.000234     -0.139357
Mn	      4.16366      6.16907      2.07435        -0.077589      0.535445     -0.125664
Mn	      4.17215      4.09985      8.24305        -0.034879      0.136684     -0.205882
Cr	      4.22465      6.16576     10.40057        -0.373431     -0.073049     -0.323327
Cr	      2.09981      2.13468      4.24443        -0.027843     -0.064118      0.317163
Fe	      2.07720      6.02867      4.21055         0.268919      0.074627     -0.094298
Ni	      4.13928      4.10403      0.02982        -0.088686     -0.763662     -0.118247
Ni	      2.16663      8.22426      6.23648        -0.019309      0.161302     -0.016547
Ni	      2.11541      6.12683      8.26946         0.270304     -0.056098      0.020574
Ni	      6.16833      2.10734      4.16584        -0.076201      0.195230      0.100855
O	      1.93507      2.05353      2.16998        -0.024791      0.103685     -0.000823
O	      4.19024      4.25533      2.04519        -0.198276     -0.126294     -0.254951
O	      4.09320      2.00663      4.12195        -0.061528      0.230116     -0.038612
O	      6.32306      4.21963      4.13245        -0.181851      0.140765      0.034109
O	      6.25958      1.93924      6.33920        -0.044894      0.755955      0.249332
O	      8.37270      4.10960      6.13524        -0.430400      0.143156      0.508565
O	      2.11027      4.06577      4.11443        -0.042863     -0.037561     -0.065921
O	      4.17424      6.16816      4.02223        -0.005947     -0.044468     -0.077649
O	      4.15792      4.09027      6.41700        -0.027383     -0.004670      0.113295
O	      6.19152      6.18293      6.03633         0.043340      0.018222     -0.127674
O	      6.11519      3.98587      8.28503         0.024369     -0.146821      0.104157
O	      8.41785      6.24591      8.40613         0.035030     -0.063298      0.018309
O	      2.07665      6.18708      6.15409         0.286047     -0.079589     -0.024215
O	      4.14848      8.37166      6.27244         0.208045     -0.278644      0.084232
O	      4.19226      6.02242      8.37597         0.124690     -0.090357     -0.155973
O	      6.39034      8.22243      8.35833         0.013851     -0.128387     -0.117786
O	      6.25615      6.19390     10.41116         0.309988     -0.063951      0.277120
O	      8.27857      8.22896     10.32887         0.153066     -0.207745     -0.052058
