# total energy = -205.21589203 eV
 
CRYSTAL
PRIMVEC
0.013732 6.141239 6.175473 
6.215367 -0.025439 6.214465 
4.143070 4.119792 -0.016368 
PRIMCOORD
36 1
Li	      6.26099      6.16580     12.28234         0.019507      0.018573     -0.081256
Li	      8.36150     10.14400     10.34868         0.014874     -0.039518      0.025275
Li	      6.32636      8.12662     10.37981         0.034570     -0.011457     -0.005074
Li	     10.29488      6.12982      8.28094        -0.079297      0.010248     -0.030554
Li	      4.20887      2.02027      6.22282         0.011844     -0.024148      0.013037
Li	     10.27597      8.20561     10.33907         0.027942      0.027661     -0.007328
Li	      8.29204      6.19868     10.31329        -0.025666     -0.015837     -0.006556
Li	      4.10466      6.13094      6.09202        -0.010863      0.035494     -0.030035
Li	      8.33101      8.13640      8.38748         0.018304     -0.064775      0.135585
Mn	      6.20465      4.06539      6.16474         0.035418     -0.042660      0.062142
Mn	      6.26680      6.13777      8.32003        -0.019907     -0.073389      0.065967
Cr	      4.16066      8.17182      8.21064        -0.021198      0.075834      0.011014
Cr	      2.11870      4.11779      6.14051        -0.098880      0.019607     -0.021209
Ni	      8.27119      8.13176     12.30634         0.098451     -0.030151      0.083565
Ni	      6.26233     10.23567      8.25679         0.030612     -0.019902      0.046314
Ni	      8.27585      4.11708      8.26958         0.005595     -0.044875      0.043187
Ni	      6.18482      6.15948      4.11175         0.049543      0.028890      0.005191
Ni	      4.14685      4.12270      4.10962        -0.041541     -0.114314     -0.120540
O	      8.33335      8.15459     10.37633        -0.014868     -0.003427     -0.129313
O	      2.18749      2.03290      2.01156        -0.098080      0.022350     -0.014767
O	      4.16009      3.99195      2.12688         0.030835      0.138470     -0.043490
O	      4.07548      2.19814      3.97377         0.084544     -0.061945      0.156472
O	      6.20415      4.14595      4.20468         0.138914     -0.130329      0.120168
O	      6.21178      2.19187      6.23539        -0.094921      0.080500     -0.013820
O	      8.12142      4.05688      6.21456        -0.085388      0.078823     -0.118076
O	      2.08277      4.04216      4.16490        -0.116820      0.102016      0.081411
O	      4.21901      6.00271      4.07524        -0.118990      0.170196     -0.014884
O	      4.18850      4.09001      6.08497         0.023209     -0.000028      0.082110
O	      6.21196      6.12273      6.26381        -0.000935     -0.014569      0.069619
O	      6.19497      4.21106      8.12436        -0.150854      0.053549     -0.012429
O	      8.13170      6.12011      8.25859        -0.044863      0.168877     -0.011059
O	      2.08765      6.07779      6.27220         0.027583     -0.066408     -0.186403
O	      4.23703      8.23940      6.32712         0.071624      0.015374     -0.164424
O	      4.21714      6.31086      8.29643         0.194854     -0.186052      0.021514
O	      6.18243      8.13085      8.16767         0.089984     -0.112299      0.030633
O	      6.20592      6.13020     10.15459         0.014861      0.009622     -0.041987
