# total energy = -211.85241194 eV
 
CRYSTAL
PRIMVEC
0.008520 5.993979 6.390009 
6.283017 -0.026868 6.426468 
4.163198 3.994754 0.007260 
PRIMCOORD
36 1
Li	      2.20830      5.98101      8.53395         0.060959      0.005745      0.011483
Li	      4.15603      7.92761      8.55518        -0.008936     -0.039201     -0.000006
Li	      6.22285      7.98774     10.50443        -0.016599      0.000262     -0.041213
Li	      4.17918      5.98231      2.13986         0.004985     -0.012105      0.014374
Li	      2.19599      1.95682      4.27025        -0.011846      0.008997     -0.003357
Li	      4.10508      2.02158      6.33118        -0.009146     -0.007180     -0.113358
Li	      6.27279      7.92361      6.59854        -0.016751      0.004056      0.065725
Li	      4.23135      5.98012      6.54730         0.006704      0.035084      0.055592
Li	      6.23554      6.06661      8.44467        -0.058372      0.044340     -0.013684
Mn	      4.21662      3.94978      4.24762        -0.014190      0.076305     -0.039715
Mn	      6.22533      4.04841      6.41164        -0.003060      0.114000     -0.181665
Mn	      4.17665      7.92098      4.27366         0.047795     -0.074870      0.040330
V	      0.08884      0.04439      0.05917         0.048316     -0.074376     -0.029779
Fe	      8.34515      3.93976      8.52275        -0.083490      0.118644      0.050338
Co	      8.34170      5.96442     10.68594         0.048259      0.031615      0.057728
Ni	      2.10059      1.97958      0.07068         0.005174     -0.055156     -0.021291
Ni	      4.14435      0.05910      4.21045         0.042115      0.039320      0.028124
Ni	      8.32162      7.96986      8.53490         0.153888      0.023354     -0.034402
O	      6.46237      8.00592      8.54692        -0.311631     -0.041657      0.012671
O	      2.04562      2.06049      2.10298        -0.014103     -0.011315      0.089056
O	      4.08948      4.01708      2.05362        -0.034263     -0.011516      0.061815
O	      4.19748      2.08414      4.21690        -0.002601      0.071786      0.029496
O	      6.26685      3.98884      4.48327         0.076051     -0.012341      0.118892
O	      6.29734      1.88740      6.38931        -0.124238      0.037097      0.042696
O	      8.30252      4.00580      6.43225        -0.013790      0.113300      0.108823
O	      2.00832      4.05083      4.16163        -0.080774      0.004201     -0.031645
O	      4.00187      5.96180      4.28497        -0.059890      0.001642     -0.044310
O	      4.34681      3.96165      6.38617         0.033299     -0.030150     -0.122963
O	      6.25967      5.87229      6.40363         0.027972     -0.123834     -0.008305
O	      6.23058      3.96669      8.40196         0.143565     -0.003100     -0.079075
O	      8.34067      6.00157      8.76039        -0.043997     -0.257206      0.041356
O	      2.00895      5.97117      6.22893        -0.057772     -0.135114     -0.030621
O	      4.15456      8.14498      6.42373         0.085152      0.053933      0.041110
O	      4.18462      5.88013      8.63480         0.091939      0.212942     -0.147283
O	      6.34378      5.86752     10.80717         0.086104      0.032088      0.046248
O	      8.51119      7.91108     10.73638         0.003171     -0.139592      0.026814
