# total energy = -214.83509332 eV
 
CRYSTAL
PRIMVEC
-0.005471 6.259193 6.294564 
6.201322 -0.012577 6.301788 
4.146611 4.190678 -0.021363 
PRIMCOORD
36 1
Li	      4.21208     10.29647      6.32967        -0.038026      0.042909      0.026659
Li	      2.29387      8.27759      6.31084         0.079721     -0.010175      0.082556
Li	      4.11331      8.43920      8.18893        -0.050184      0.015282     -0.025462
Li	      2.08876      4.14776      2.21030        -0.013781     -0.033756     -0.107449
Li	      4.01453      4.25941      4.13508         0.095517      0.013492     -0.032669
Li	      4.25171      8.27416      4.31469        -0.112611      0.033626      0.015046
Li	      2.12828      6.19324      4.25672        -0.029464      0.096764      0.047589
Li	      4.03975      6.47406      6.20099         0.000160      0.046524     -0.031745
Li	      4.13748      4.14161      8.35836        -0.008402      0.012585      0.004515
Mn	      2.04497      0.02078      2.05839         0.042814      0.283882     -0.226168
Mn	      8.26498      6.24912      6.26672         0.017288     -0.019210      0.167625
Mn	      6.19233      6.29322      8.38937         0.014227     -0.051931     -0.152946
V	      8.33107     10.29416     10.46768         0.122993     -0.111883     -0.028543
Fe	      6.13165      4.15100      6.34689         0.048727      0.035074     -0.020696
Co	      6.17945      2.10205      4.16835         0.050670     -0.176863      0.028056
Co	      2.02512      2.11354      4.17037        -0.278935      0.620160      0.020619
Cu	      4.13121      6.28232      2.13430         0.068116      0.034692     -0.091920
Ni	      1.98740      4.24778      6.21710         0.138107     -0.003959      0.194086
O	      4.18132      8.36255      6.28389        -0.033599      0.024065     -0.072534
O	      2.07324      1.99305      2.23916         0.150466     -0.255769     -1.249710
O	      4.29969      4.28249      2.08495         0.035666     -0.158819      0.057214
O	      4.04238      1.93683      4.34905         0.444848     -0.025848      0.137124
O	      6.28040      4.26311      4.13154        -0.071092     -0.080715      0.034613
O	      6.03665      2.13486      6.26752        -0.053863     -0.051079     -0.195665
O	      8.19113      4.28956      6.18518        -0.026585      0.037771      0.018631
O	      2.08358      4.01463      4.20147         0.083161     -0.218425     -0.031916
O	      4.25860      6.28076      4.10167        -0.493247     -0.103609      0.357617
O	      4.14998      3.97821      6.24279        -0.051211     -0.008857     -0.073771
O	      6.29019      6.21803      6.21519         0.099011     -0.050881      0.903241
O	      6.17988      4.15175      8.26222        -0.008715     -0.035783      0.172797
O	      8.23376      6.25249      8.20863         0.005825     -0.015042     -0.099953
O	      2.11124      6.26803      6.47222         0.019499      0.023455      0.025961
O	      4.08812      6.27712      8.55047        -0.084940     -0.017953      0.048968
O	      6.20173      8.48557      8.42356        -0.014215      0.048736      0.112418
O	      6.11985      6.30566     10.43289        -0.000948      0.032215     -0.029829
O	      8.23850      8.51137     10.55120        -0.146999      0.029324      0.015639
