# total energy = -215.36808390 eV
 
CRYSTAL
PRIMVEC
-0.004168 5.929754 6.613111 
5.995835 -0.024990 6.631791 
4.011696 3.981324 -0.028979 
PRIMCOORD
36 1
Li	      6.07094      3.95500      2.29155        -0.009394     -0.029574      0.080878
Li	      3.94200      0.02757      4.36589        -0.029646     -0.017517     -0.007328
Li	      7.96327      3.94417      8.67907         0.024037      0.081661     -0.044477
Li	      6.05380      5.86080      4.45766         0.013377      0.002387      0.013433
Li	      4.04235      3.97232      4.52161        -0.057473      0.010198      0.009971
Li	      5.98116      4.05233      6.43316        -0.022539      0.000962     -0.093583
Li	      2.01358      5.90737      4.56698         0.038853     -0.020848      0.006502
Li	      4.03534      5.87403      6.86731         0.029407     -0.033681      0.033339
Li	      3.99816      4.02297      8.65904         0.013189     -0.043574     -0.009772
Mn	      6.00072      1.99390      4.38288        -0.054360      0.019941     -0.032314
Mn	      5.97544      3.96448     10.99856        -0.061003      0.021919      0.008191
Mn	      2.00868      3.92951      6.59343         0.241859     -0.118081     -0.093167
V	      9.96176      5.92405      8.83926        -0.250749      0.003766     -0.018968
Fe	      2.02986      2.01416      0.00679        -0.137150      0.039119     -0.163807
Co	      4.01946      3.96598      0.01551        -0.065694      0.216022     -0.091118
Co	      4.00412      1.96437      6.56902        -0.002543      0.028963      0.013021
Cu	      3.96386      2.00855      2.28296        -0.034686      0.019622      0.199770
Cu	      6.01549      5.87225      8.75256         0.223133      0.081302      0.089752
O	      4.09269      6.00960      8.87240        -0.224055      0.013943      0.033816
O	      1.87104      1.98185      2.00349         0.175467      0.001314      0.158790
O	      3.98672      3.97344      1.97130        -0.024258     -0.024151      0.035459
O	      4.09459      1.97936      4.64439        -0.061752     -0.035462     -0.103157
O	      5.99807      3.84965      4.37278         0.002644      0.018455     -0.057142
O	      5.96728      1.88565      6.72727         0.074965      0.023064      0.005932
O	      8.10331      3.98492      6.62976        -0.081342     -0.048289      0.008438
O	      1.88482      3.95106      4.64287         0.122766      0.005494     -0.009206
O	      3.95830      6.00856      4.07048         0.044534     -0.066864      0.113513
O	      3.89015      3.89342      6.57996        -0.040424      0.115510      0.056558
O	      6.10955      6.01314      6.47665        -0.155544      0.056169     -0.055076
O	      5.98395      3.93615      8.86595         0.026818     -0.174678     -0.086620
O	      8.07269      5.94807      8.52261        -0.010037     -0.021422      0.116772
O	      1.94890      5.88589      6.65163         0.118126     -0.060515      0.029956
O	      4.02813      7.96599      6.55870         0.100308     -0.147829     -0.005252
O	      5.98969      7.84305      8.60700         0.054503      0.128676     -0.006363
O	      6.00780      5.93212     11.33497         0.016233     -0.044476      0.028039
O	      7.99949      7.87390     11.24629         0.002431     -0.001525     -0.164780
