# total energy = -215.17936125 eV
 
CRYSTAL
PRIMVEC
0.023992 6.187248 6.332262 
6.221868 0.040520 6.317776 
4.157788 4.124391 0.016728 
PRIMCOORD
36 1
Li	      4.25314     10.26116      6.44893         0.004603     -0.045232      0.080711
Li	      4.14710      2.14571      2.05321         0.035044      0.005902      0.018059
Li	      4.16769      6.12353      2.25117        -0.000826      0.004969      0.076607
Li	      4.15720      4.22015      4.19477        -0.024115     -0.003944     -0.075885
Li	      6.17241      4.28017      6.34440         0.030415      0.025483      0.061155
Li	      2.18109      6.11646      4.27354        -0.007360     -0.014927     -0.053910
Li	      6.27577      8.20763      6.33636        -0.031547      0.008976     -0.055752
Li	      4.24152      6.18086      6.32530         0.019524      0.012107     -0.019729
Li	      6.24151      6.20201      8.24764         0.002202      0.014277     -0.041126
Mn	      2.12016      2.02533      0.11778         0.055043      0.067097     -0.040263
Mn	      4.20925      8.21359      4.24430         0.075671      0.070087      0.090273
Mn	      4.20069      4.10610      8.35868        -0.062093      0.056978      0.041930
V	      6.16302      2.01316      4.23999        -0.085802     -0.057310     -0.108028
Fe	      8.25496      4.16511      4.22740         0.100450     -0.009534      0.121112
Co	      6.18443      4.14608      2.12693         0.042629     -0.092487     -0.035210
Co	      2.18352      4.17487      2.11174         0.119717      0.052323     -0.003748
Ni	      8.24874      6.23091      6.37234         0.069922     -0.059370     -0.012068
Ni	      6.19185      6.22353      4.29213         0.015481      0.051677     -0.014099
O	      2.09706      1.99628      2.17582         0.012902      0.127850     -0.030230
O	      4.22592      4.12851      2.14867        -0.178892      0.060515     -0.016296
O	      4.23459      2.02202      4.23507         0.051262      0.083884     -0.127053
O	      6.24015      4.06190      4.09867        -0.039942     -0.090938     -0.004183
O	      6.32486      2.10190      6.04426        -0.003828     -0.023519      0.053032
O	      8.27916      4.05859      6.28825        -0.016489     -0.138844     -0.176687
O	      1.93005      4.17037      4.16160        -0.127955     -0.006964      0.150130
O	      4.17051      6.36193      4.25515        -0.152672     -0.018935     -0.023139
O	      4.18592      4.12459      6.49485         0.013963      0.145997      0.100754
O	      6.28317      6.21016      6.27043        -0.127757     -0.009975      0.141183
O	      6.14643      4.17427      8.57352         0.026596     -0.019950     -0.037056
O	      8.34226      6.30561      8.39594         0.011351     -0.133631      0.101378
O	      2.09937      6.31769      6.52536        -0.018834      0.039668      0.048446
O	      4.09625      8.27773      6.14850         0.003210      0.006881     -0.055571
O	      4.03358      6.08893      8.51847         0.000352     -0.008673     -0.051589
O	      6.34748      8.33697      8.59689         0.028647      0.018239     -0.002429
O	      6.13124      6.22830     10.49233         0.156897     -0.020626     -0.032773
O	      8.34233      8.27606     10.45211         0.002231     -0.098050     -0.067943
