# total energy = -217.76837656 eV
 
CRYSTAL
PRIMVEC
-0.015303 6.040875 6.220672 
6.303863 -0.017460 6.222187 
4.214764 4.040560 -0.022948 
PRIMCOORD
36 1
Li	      0.05415      5.98263      6.19478        -0.040757     -0.019081     -0.037271
Li	      2.13785      8.03481      6.18314         0.038482      0.024668      0.015389
Li	      2.12807      6.04200      8.20137         0.102518     -0.013186     -0.089676
Li	      8.34551      4.01064      8.30539        -0.028679      0.018477     -0.052118
Li	      4.15733      4.06211      4.19769        -0.061122      0.095165      0.049974
Li	      4.24273      8.05684      4.16950        -0.011059      0.043801      0.047125
Li	      2.03010      4.05382      6.18046        -0.044028     -0.008572      0.095252
Li	      4.24127      4.02273      8.28908         0.055600      0.076605     -0.041616
Li	      6.25401      5.99816      8.29214        -0.123045     -0.031842      0.016417
Mn	      6.34122      8.06209     10.33441        -0.115404     -0.082254      0.011069
Mn	      0.06484      2.01226      2.06653         0.006722     -0.079864     -0.040298
Mn	      8.34221      6.08002      6.24732         0.020662     -0.072999      0.085734
V	      4.22959      2.12019      2.04698        -0.022004     -0.412080     -0.487638
Fe	      2.10223      5.93209      4.20173        -0.135930      0.036223     -0.119603
Co	      4.23779      5.97935     10.34072        -0.192645     -0.064225     -0.011885
Co	      6.29178      4.01863      6.20310         0.156487     -0.054033      0.022241
Co	      4.15420      6.04378      6.22797         0.082676      0.003706      0.195402
Cu	      6.24111      6.11452      4.12491        -0.071930     -0.069542     -0.039081
O	      2.07589      2.01161      2.17716         0.060539      0.011754      0.056844
O	      4.22351      3.97294      2.01725         0.012375      0.069547      0.072937
O	      4.38136      2.05409      4.12114        -0.044623     -1.145334      0.093144
O	      6.36091      3.97223      4.24979         0.402183      0.056631      0.061824
O	      6.31151      2.06039      6.09228         0.127617      0.115165     -0.029911
O	      8.24911      4.15981      6.14945        -0.198574      0.049388      0.128647
O	      2.05649      4.04066      4.15488         0.035304     -0.040112      0.016063
O	      4.06908      6.05746      4.26658        -0.031156     -0.050264     -0.125215
O	      4.32811      4.00536      6.23527         0.046966     -0.029891     -0.045423
O	      6.17673      5.95444      6.14281        -0.001679     -0.019686      0.031253
O	      6.31966      3.90366      8.13111        -0.005350      0.054925      0.037591
O	      8.60014      6.00674      8.23925        -0.017221      0.042483      0.117080
O	      2.23792      6.02070      6.16425        -0.094807     -0.008767      0.144414
O	      4.18228      7.97917      6.33465        -0.021548      0.095042     -0.023335
O	      4.18306      6.20635      8.22337        -0.004965      0.139183     -0.138996
O	      6.18305      8.08433      8.41668        -0.177678      0.001913      0.020785
O	      6.32168      6.11634     10.36098        -0.020568     -0.059811     -0.035981
O	      8.24287      7.97447     10.30569         0.316640      1.326865     -0.001139
