# total energy = -88.96888997 eV
 
CRYSTAL
PRIMVEC
1.942295 3.923937 1.941971 
3.968337 -3.978441 0.025546 
3.942633 -0.000131 -3.941700 
PRIMCOORD
16 1
Li	      3.73011      1.78552      1.82398        -0.590898      1.355184      0.270887
Li	      3.74264      0.02506      0.02967        -0.888406     -0.132356     -0.412683
Li	      3.78908     -1.83806     -1.86186        -0.669361     -0.443529     -0.636808
Li	      5.58400     -0.07861     -1.87419         0.002652      0.862076     -0.832396
Mn	      9.35047     -0.05206     -1.86639         7.331104     -0.722134      0.037420
Mn	      5.63779     -1.91601      0.00068         2.116107     -5.335862      3.642778
Ni	      7.49894     -0.05213     -0.01558         2.092776      0.397540      2.973323
Ni	      7.48928     -1.91618     -1.85041         2.365191     -2.729750     -2.170527
O	      5.61415     -0.15748      0.08938        -1.419902      2.824560      0.897970
O	      5.63809     -1.91278     -1.72159        -1.370524     -0.529452     -3.540167
O	      3.59010      1.86042     -0.02409        -0.061135      1.286329      1.694269
O	      3.73479     -0.00367     -2.01315        -1.529822      0.396968     -0.676614
O	      7.62836     -0.04923     -1.86629        -2.058430      1.880369     -1.890527
O	      3.84866     -2.02127      0.00954        -3.236956     -0.672950      0.463502
O	      5.60469      1.96872     -1.97932        -0.020879      1.651721     -0.141059
O	      1.77903      0.10513      0.00032        -2.061516     -0.088713      0.320633
