# total energy = -217.78400484 eV
 
CRYSTAL
PRIMVEC
0.023132 6.110362 6.205921 
6.294011 -0.003596 6.232807 
4.178321 4.073304 0.015429 
PRIMCOORD
36 1
Li	      2.13042      8.11929      6.25446        -0.017878     -0.058291      0.018084
Li	      2.16309      6.05003      8.23554        -0.027780      0.030160     -0.027176
Li	      4.23832      8.10865      8.23189        -0.000501      0.006979      0.007789
Li	      4.25711      6.08846     10.31669         0.025535      0.024407     -0.001938
Li	      6.31865      8.09674     10.32622        -0.034152     -0.018971      0.030332
Li	      0.02564      1.99085      2.02001         0.016994      0.029959     -0.006169
Li	      8.41752      6.06907      6.24265         0.034569      0.030883     -0.027960
Li	      4.17556      6.16585      6.30628         0.020386     -0.028604     -0.021381
Li	      6.21367      6.15973      8.32907         0.019154     -0.013966     -0.010358
Mn	      8.42008      4.10910      8.27843        -0.059639      0.056458      0.038083
Mn	      4.24014      4.12268      4.09326         0.020785     -0.003802      0.051401
Mn	      4.17593      4.11349      8.29143         0.023715     -0.103448     -0.085910
V	      2.23891      1.98814      4.15921         0.018575      0.054429     -0.061218
Fe	      6.33546      3.92202      6.26494        -0.016740      0.156863     -0.019953
Co	      6.30852      0.03118      6.22434         0.016084      0.001191     -0.113305
Co	     10.45745      8.17089     10.40413        -0.027513     -0.073045     -0.117409
Co	      8.37946      6.14427     10.40956         0.012898     -0.031251     -0.063014
Ni	      6.25178      8.14955      6.31707         0.056217     -0.039435     -0.020199
O	      2.06414      2.18881      2.22830         0.025592      0.021086     -0.093813
O	      4.20884      4.07388      1.97151         0.012507     -0.015850     -0.025354
O	      4.03209      2.05527      4.10151         0.059621     -0.003230     -0.009521
O	      6.29750      4.15110      4.24359         0.054440     -0.034420     -0.038086
O	      6.29452      2.02021      6.17929         0.016457     -0.129311      0.024480
O	      8.39922      4.07752      6.30623         0.029379     -0.014152      0.020400
O	      1.97261      4.12264      4.13408        -0.081909      0.023590      0.019478
O	      4.11669      6.21790      4.18889        -0.035240      0.086247      0.030913
O	      4.23441      4.03858      6.32260         0.065010     -0.005014      0.113975
O	      6.23779      6.06943      6.06472         0.049699     -0.097060      0.150112
O	      6.19551      4.08597      8.32356        -0.002932      0.004679      0.048365
O	      8.37788      6.08971      8.45261         0.012454      0.018029      0.094367
O	      1.96212      6.11260      6.08931        -0.028420      0.091023     -0.050523
O	      4.22031      8.28352      6.08409        -0.173507      0.018041      0.021087
O	      4.20186      5.96105      8.31628        -0.018103      0.021302     -0.025359
O	      6.45516      8.11669      8.31342         0.026998      0.022101      0.106628
O	      6.44063      6.03686     10.48425        -0.063031     -0.066490      0.050708
O	      8.53220      8.04670     10.28689        -0.029726      0.038914     -0.007554
