# total energy = -216.27668282 eV
 
CRYSTAL
PRIMVEC
-0.010993 6.353586 6.099148 
6.236708 -0.018444 6.106465 
4.147530 4.230495 -0.002005 
PRIMCOORD
36 1
Li	      2.14749      6.28751      8.14258        -0.016759     -0.023095     -0.000408
Li	      4.21607      8.35868      8.16888         0.019644     -0.041870     -0.049288
Li	      4.12894      6.38023      9.99499        -0.003641      0.020766      0.018669
Li	      8.30598      4.27184      8.16142        -0.013877      0.010222      0.024905
Li	      4.18587      4.12650      3.95669         0.025955     -0.017569     -0.055442
Li	      8.26663      6.35043      6.15295         0.002575      0.014802      0.039574
Li	      6.24258      8.42735      6.22054         0.014986      0.008097      0.023901
Li	      4.10918      4.29108      8.15642         0.004246      0.015797     -0.022137
Li	      6.15862      6.41136      8.14559         0.028343      0.026360     -0.020801
Mn	      6.14122      2.16607      3.94820         0.109179     -0.014895     -0.052584
Mn	      2.18064      2.13029      4.01710         0.005538     -0.019192     -0.007398
Mn	      8.29967      6.28033     10.12356        -0.022005     -0.013563     -0.098998
V	      6.13670      4.29331      6.16461         0.093394     -0.078322      0.000412
Fe	      4.07801      4.21663      0.10806        -0.055733      0.047627     -0.165982
Fe	      2.09795      2.12457      0.08900        -0.056171      0.020319     -0.080673
Co	      6.21641      4.25564     10.12994         0.051072      0.039735     -0.074786
Cu	      4.13212      6.34579      6.19108         0.006887     -0.100922     -0.104864
Ni	     10.34909      6.31703      8.14887        -0.005834      0.016243      0.019556
O	      4.15534      6.34868      8.03953         0.004219     -0.011743      0.119468
O	      2.03331      2.10082      2.06125         0.155611      0.015121      0.162052
O	      4.13716      4.31466      1.95991         0.006804     -0.135135      0.138592
O	      4.17072      2.12616      4.05334        -0.029887     -0.053342     -0.002468
O	      6.23842      4.24916      4.16679         0.028493      0.056061     -0.098803
O	      6.26761      2.11808      6.00170        -0.033787     -0.032624     -0.070777
O	      8.21992      4.10175      6.10082         0.014091      0.045755      0.015370
O	      1.93408      4.24853      4.10432        -0.091390     -0.045119      0.020023
O	      4.14116      6.52522      4.14774         0.044340      0.050200      0.060462
O	      4.36706      4.15235      6.10138        -0.174985     -0.038578     -0.004468
O	      6.29961      6.22075      5.98636         0.044782      0.163782     -0.063405
O	      6.24161      4.13700      8.13963        -0.005815      0.106086      0.155790
O	      8.34474      6.30306      8.27450        -0.167997      0.012587      0.051380
O	      2.00126      6.41936      6.00035         0.012518     -0.027908      0.025899
O	      4.07349      8.58131      5.95945         0.072344     -0.020819      0.008008
O	      6.21710      8.47309      8.23390        -0.003256      0.009585      0.033140
O	      6.29061      6.24727     10.20097        -0.102262     -0.034887      0.073973
O	      8.35498      8.34593     10.21999         0.038375      0.030438     -0.017891
