# total energy = -216.73571723 eV
 
CRYSTAL
PRIMVEC
0.013136 6.220537 6.244078 
6.309395 0.031349 6.224610 
4.232640 4.160012 -0.004331 
PRIMCOORD
36 1
Li	      8.44904      8.27518     12.35630        -0.024220      0.024282      0.068926
Li	      2.09555      4.17064      2.13503         0.046843     -0.037474      0.021640
Li	      6.24483      6.33426      4.24641        -0.027625      0.019325      0.005814
Li	      6.32945      4.21929      6.20055         0.004202      0.012407     -0.004368
Li	      4.21113      8.23913      4.23838        -0.020829     -0.028141      0.049455
Li	      2.18342      6.25475      4.26106         0.020345     -0.053801      0.036660
Li	      2.14064      4.19593      6.12897         0.010251     -0.046919      0.062933
Li	      4.14894      6.21540      6.24791        -0.041296      0.001953     -0.006886
Li	      8.45329      8.33003      8.43824        -0.053676      0.005428     -0.032706
Mn	      4.17425      8.30872      8.25480         0.046116     -0.028952     -0.087681
Mn	      4.16954      4.18903      4.17035        -0.188626      0.051645     -0.037272
Mn	      6.37434      6.20642      8.33872        -0.033264      0.175280     -0.150538
V	      6.36015      2.26059      8.35209         0.096082     -0.064943     -0.240359
Fe	      0.08516      6.18686      6.15367        -0.075900      0.057793      0.068523
Fe	      8.42367      6.25358      6.24691        -0.015321      0.107533     -0.003963
Co	      6.37786      8.32998     10.39262         0.650935     -0.006161      0.318122
Ni	      2.13077      6.17493      8.26113        -0.027983     -0.113466     -0.115837
Ni	      8.40052     10.33629     10.38764        -0.005127      0.134145     -0.050308
O	      1.87495      2.02603      2.05615        -0.085034      0.188039      0.010632
O	      4.22741      4.10130      2.10495        -0.047461      0.112427      0.072158
O	      4.31480      2.17011      4.06338        -0.460273      0.065442      0.087489
O	      6.25012      4.04047      4.07076        -0.046323      0.067632      0.165456
O	      6.26358      2.08305      6.20019        -0.107152      0.007822      0.887719
O	      8.54265      4.29992      6.13055         0.033178     -0.127833      0.180262
O	      2.32772      4.12616      4.13311         0.148933      0.010478     -0.012301
O	      4.23855      6.12399      4.05677         0.038118     -0.024347      0.096825
O	      4.24916      4.10567      6.03111         0.057023      0.095182     -0.076870
O	      6.44664      6.24100      6.42416         0.013898     -0.068132     -0.058543
O	      6.33221      4.17754      8.40867         0.023213     -0.002688      0.016820
O	      8.67157      6.26692      8.22305         0.045742      0.044921      0.090584
O	      2.00148      6.20123      6.26972         0.058035      0.033407     -0.168912
O	      4.19427      8.37242      6.33471        -0.068385     -0.118393      0.059608
O	      4.16926      6.38365      8.33346         0.074166     -0.107661     -0.012712
O	      6.39541      8.22641      8.47392        -0.284394     -0.300588     -1.324322
O	      6.31729      6.33713     10.33584         0.028490     -0.018283      0.001357
O	      8.26980      8.36043     10.40257         0.217317     -0.067361      0.082600
