# total energy = -219.30467590 eV
 
CRYSTAL
PRIMVEC
-0.007258 6.067367 6.464577 
6.228363 -0.034127 6.490542 
4.137248 4.047442 -0.008046 
PRIMCOORD
36 1
Li	      8.24479      1.99581      6.45803         0.010230     -0.025327     -0.015529
Li	      6.29304      2.00098      4.45073         0.016426     -0.082865      0.004930
Li	      6.13043      2.07996      8.56198        -0.011050      0.033312     -0.099252
Li	      8.22834      4.02938      8.56748        -0.036292     -0.011597     -0.069322
Li	      2.07413      2.02460      4.22296         0.054306      0.020076      0.007246
Li	      8.35950      6.04349      6.66491         0.019106     -0.075396      0.057843
Li	      8.29485      6.11399     10.64386        -0.088785      0.024549      0.079245
Li	      4.14625      6.03723      6.47658        -0.014600      0.104244      0.103308
Li	      8.42248      7.96839      8.76776         0.014855      0.003859      0.081903
Mn	      6.19330      0.06675      6.46073        -0.000750     -0.027487     -0.055515
Mn	      4.06042      2.01256      2.13367        -0.066156     -0.105126     -0.250400
Mn	      6.24708      8.03220      6.48813        -0.228157      0.092961      0.310787
V	      4.16931      4.12937      4.35438         0.064394     -0.173010      1.287303
Fe	      8.24451      3.96945      4.34418         0.049365      0.076744      0.108872
Fe	      6.41060      5.96191      8.66895        -0.251329      0.095479     -0.010847
Co	      6.18627      4.03533      2.14032         0.095029      0.071999     -0.102766
Co	      4.10357      8.03036      4.28496         0.021132      0.002646     -0.028167
Cu	      6.23752      3.98915      6.55058         0.061919     -0.067662      0.132225
O	      2.18742      1.92000      2.13733         0.053798      0.014031      0.076454
O	      4.20840      3.95124      2.23561        -0.075562      0.050331      0.410856
O	      4.12964      2.08851      4.05301         0.018098      0.140140      0.113901
O	      6.17631      4.02282      4.08623        -0.439769      0.041058     -0.249072
O	      6.25434      1.94855      6.51075        -0.107902      0.185651     -0.060015
O	      8.31517      4.09068      6.31645         0.046868      0.081899      0.045298
O	      2.15510      4.00576      4.56362         0.231251      0.027508     -0.537799
O	      4.15485      5.91442      4.29095         0.038103     -0.202915      0.036311
O	      4.26263      3.97972      6.26145         0.208590      0.094384     -1.389744
O	      6.17367      6.08502      6.66268         0.025083      0.015010     -0.164095
O	      6.27172      4.04095      8.75124        -0.096851     -0.163217      0.085683
O	      8.25793      6.03870      8.66454         0.289897      0.028907      0.025087
O	      1.97285      5.97748      6.64963         0.147762      0.061432      0.033198
O	      4.07478      8.20731      6.58395        -0.130142     -0.223726      0.087854
O	      3.99628      6.14972      8.66039        -0.015788      0.037526      0.009568
O	      6.06628      8.11024      8.47607        -0.009508      0.018510      0.035502
O	      6.11873      6.07911     10.70044         0.073544     -0.058861     -0.081718
O	      8.31223      8.12199     10.77809         0.032886     -0.105065     -0.019134
