# total energy = -220.14778236 eV
 
CRYSTAL
PRIMVEC
-0.003263 6.272035 6.460736 
6.296315 -0.020076 6.478048 
4.184117 4.179018 0.000683 
PRIMCOORD
36 1
Li	     10.35764      6.42783      8.69090        -0.068926     -0.019536      0.016337
Li	      8.23466      4.26440      8.73150        -0.017478      0.067112     -0.046052
Li	      6.13072      6.34724      4.35514         0.014149      0.021228      0.059267
Li	      8.39847      6.28566      6.65882        -0.109997      0.011284      0.001165
Li	      6.18495      4.18739      6.69917         0.089828     -0.001454      0.021162
Li	      0.09519      4.00525      4.11082        -0.032144     -0.021412      0.031429
Li	      8.44862      6.24157     10.58613         0.029630      0.006191      0.006434
Li	      4.23466      6.22314      6.33029         0.006167      0.012610     -0.013954
Li	      4.34317      4.06195      8.54416        -0.072676      0.045506     -0.028955
Mn	      6.28616     -0.00457      6.45202         0.130410     -0.141869     -0.029263
Mn	      4.22101      6.24964     10.79546        -0.005891      0.093624     -0.033135
Mn	      6.33761      8.33537     10.79431        -0.030743      0.035127     -0.073431
V	      2.07309      0.04221      2.15624         0.029832      0.048417     -0.258442
Fe	      4.19334      8.35485      8.59588         0.021324     -0.085712      0.065456
Fe	      4.10853      4.36303      4.39835        -0.096608     -0.234189      0.009045
Co	      8.37894      8.33827     12.93389        -0.039722     -0.207282     -0.072345
Co	      2.18164      4.01761      6.38390         0.104240      1.179410      0.530470
Co	      6.41568      6.11421      8.61618         0.127258      0.131071     -0.217255
O	      2.18207      1.87903      2.17646        -0.053431      0.121978      0.057035
O	      4.26211      4.09124      2.24930         0.050418      0.033258      0.034820
O	      4.34294      1.97550      4.20117         0.142747     -0.023936     -0.010008
O	      6.19528      4.06084      4.17713        -0.016756     -0.142235     -0.150744
O	      6.41504      1.92299      6.49144        -0.120243      0.028131     -0.106472
O	      8.52093      4.15958      6.29681         0.164275      0.092633     -0.020081
O	      2.15212      4.13022      4.42551         0.082965     -0.345664      0.632798
O	      4.17873      6.21658      4.31073         0.006005      0.259874     -0.059161
O	      4.14866      4.18821      6.35544        -0.812106     -0.321819      0.051592
O	      6.26320      6.37414      6.66073         0.126039     -0.083817     -0.144479
O	      6.26971      4.18741      8.62952         0.131058      0.107561     -0.039593
O	      8.25631      6.29371      8.60961        -0.082154     -0.140443      0.036024
O	      1.96493      6.19483      6.62132         0.043549     -0.266565      0.089193
O	      4.09662      8.47069      6.57303         0.430141     -0.061691      0.064377
O	      4.14922      6.32223      8.74629        -0.176923      0.020443      0.068927
O	      6.22982      8.52279      8.52051         0.085849     -0.263180     -0.561139
O	      6.39287      6.37075     10.63566        -0.038404      0.111363      0.049845
O	      8.25759      8.50514     10.81234        -0.041683     -0.066017      0.039133
