# total energy = -214.10569681 eV
 
CRYSTAL
PRIMVEC
0.052120 6.416849 6.155266 
6.209920 0.024559 6.183951 
4.153765 4.310716 0.002065 
PRIMCOORD
36 1
Li	      0.07188      6.39675      6.13484         0.031688     -0.038600      0.007603
Li	      6.31527     10.67815      8.27974        -0.032443      0.002587     -0.027035
Li	      6.28133      6.33632      4.31968        -0.014996     -0.044187     -0.059836
Li	      8.07979      6.57472      6.11667         0.041780      0.111032     -0.001349
Li	      6.20550      4.52939      6.12985         0.003631      0.013913      0.012404
Li	      0.10292      4.29959      4.11152         0.001519      0.008606      0.013517
Li	      6.25330      8.38196      6.17970        -0.029132      0.033682     -0.017892
Li	      4.35446      6.41647      6.12926        -0.088394     -0.011909     -0.046661
Li	      6.18243      6.58283      8.07875         0.004909      0.074411      0.042815
Mn	      0.02658      2.11552      2.03251         0.169246     -0.003663     -0.055462
Mn	      8.24606      4.34261      8.17860        -0.032528      0.024457     -0.052554
Mn	      8.30290      6.45615     10.30027        -0.037593      0.009059      0.151525
V	      2.23710      8.49873      6.14241         0.047709     -0.052779      0.008881
Fe	      6.13777      2.21880      4.13493         0.151727     -0.169462      0.142892
Fe	      4.14291      4.44132      8.03349         0.034882     -0.061329      0.198531
Cu	      8.23956      4.38067      4.19325         0.086651     -0.001042      0.145234
Ni	      4.24054      8.47969      8.23852        -0.056045      0.034180     -0.099231
Ni	      4.17130      4.31971      4.18154        -0.041732      0.032521      0.086733
O	      6.23131      6.46217      6.18625        -0.028015     -0.032605      0.034358
O	      1.99156      2.06659      2.00169        -0.121958     -0.001214      0.070868
O	      4.01074      4.43386      2.06369         0.030249      0.094049     -0.078956
O	      4.19038      2.25753      4.07310        -0.098133     -0.028875      0.157752
O	      6.24226      4.17178      4.16248         0.010405      0.123234      0.008019
O	      6.38800      2.10262      6.25858        -0.104379     -0.015466      0.078517
O	      8.31348      4.13039      6.21123         0.001924     -0.130623      0.080437
O	      2.07508      4.51741      3.96794        -0.082422     -0.145036      0.013889
O	      4.07387      6.39876      3.97143         0.085602      0.096987     -0.092697
O	      4.14849      4.32378      6.20345         0.010711     -0.013964     -0.112613
O	      6.28524      4.08395      8.23694        -0.029449     -0.005289      0.004483
O	      8.45901      6.58970      8.30755        -0.049721      0.045739     -0.134454
O	      2.14922      6.53308      6.00024        -0.001814      0.059024     -0.054256
O	      4.03700      8.56435      6.23988         0.163782     -0.003700     -0.139937
O	      4.20690      6.37207      8.40243         0.028444     -0.006525     -0.078243
O	      6.29962      8.63563      8.29020         0.046500      0.010866     -0.046354
O	      6.38754      6.56958     10.27544        -0.106775     -0.040253     -0.019626
O	      8.32224      8.42325     10.34739         0.004172      0.032178     -0.141301
