# total energy = -214.49079157 eV
 
CRYSTAL
PRIMVEC
0.016461 6.148310 6.208598 
6.434684 0.007925 6.217002 
4.278825 4.093293 0.016509 
PRIMCOORD
36 1
Li	     10.65733      4.09870      6.21571        -0.009933     -0.051257      0.128107
Li	      2.14571      2.06722      0.06303         0.022482     -0.007899      0.072551
Li	      2.18473      6.21920      8.19642        -0.001324      0.030385      0.026903
Li	      2.18062      4.09147      2.06485         0.074290     -0.058126     -0.014030
Li	      2.11312      2.07798      4.03246         0.035802      0.010502     -0.035149
Li	      8.62806      6.09863      6.38751        -0.006334      0.003812     -0.095884
Li	      6.42595      4.12753     10.31878         0.020698     -0.033904      0.058501
Li	      4.26101      6.17907      6.13649         0.022251      0.074054      0.012850
Li	      6.47352      6.14099      8.37188        -0.095075      0.003203     -0.053470
Mn	      4.25770      8.16422      8.24401         0.064569      0.027887     -0.110573
Mn	      6.39305      1.99355      4.25347        -0.276280      0.048099     -0.105281
Mn	      4.29401      4.13466      4.13360         0.091583     -0.276569      0.066465
V	      6.39913      8.15221      6.22677        -0.097672     -0.212615      0.065598
Fe	      6.56538      4.20105      6.28891        -0.051264      0.030605     -0.045873
Fe	      8.57828      8.17373      8.29967        -0.225206      0.463527     -0.313032
Cu	      8.58386      4.07955      4.21112        -0.045856     -0.035756      0.031257
Cu	      0.05823      2.04221      2.03504         0.249154     -0.122942      0.093757
Cu	      8.54851      6.12521     10.33855        -0.023441     -0.110463      0.100025
O	      8.51879      6.24930      8.36025        -0.203485     -0.271459      0.086103
O	      6.31799      6.25851     10.42026         0.136013      0.120814      0.003790
O	      2.39287      2.03782      2.03783        -0.233280     -0.001555      0.023575
O	      4.32548      4.00952      2.20036        -0.016431      0.336723     -0.017999
O	      4.36864      2.18381      4.01284         0.045858     -0.213917      0.143253
O	      6.28569      3.97777      4.26594        -0.079813     -0.068431     -0.065779
O	      6.44842      2.14449      6.32536        -0.046413     -0.103438     -0.045484
O	      8.47102      4.14975      6.15240         0.067046      0.021706      0.005940
O	      2.31691      4.11710      4.17879        -0.090768      0.012326     -0.038113
O	      4.40645      6.00608      4.00912         0.031461      0.456971     -0.041984
O	      4.24783      4.12171      6.16319         0.057940     -0.026681     -0.019698
O	      6.43330      6.26082      6.18565         0.068068     -0.059967     -0.032165
O	      6.30071      4.12846      8.25370         0.147219      0.000170      0.127739
O	      2.17535      5.91852      6.12033        -0.018972      0.249449     -0.091636
O	      4.40718      8.15652      6.33276         0.036821      0.027536     -0.258409
O	      4.28623      6.17539      8.42021        -0.026595     -0.304370     -0.007678
O	      6.40051      8.21644      8.20306         0.174272     -0.035579      0.052499
O	      8.41086      8.11068     10.29734         0.202616      0.077159      0.293325
