# total energy = -214.39919384 eV
 
CRYSTAL
PRIMVEC
-0.001373 6.156961 6.250585 
6.392697 -0.005579 6.254790 
4.272853 4.118325 -0.014658 
PRIMCOORD
36 1
Li	      2.15019      2.04481      0.11281         0.026391     -0.064288     -0.041767
Li	      2.35436      6.13441      8.45618        -0.033104      0.041183      0.060708
Li	      4.25084      8.08391      8.42059         0.018060      0.111724     -0.004699
Li	      4.17610      6.24083     10.19599        -0.063675      0.085511      0.064772
Li	      6.28057      2.11870      4.01984        -0.065600     -0.043085     -0.032878
Li	      0.11455      2.06013      2.05023         0.007556     -0.086786     -0.015334
Li	      2.25365      1.97308      4.10879         0.050867      0.009612     -0.004389
Li	      4.14435      4.30029      8.32421        -0.049349     -0.055640      0.074304
Li	      6.19247      6.20835      8.34791         0.020588      0.022912      0.065935
Mn	      0.01768      0.04252      0.02948        -0.011372     -0.000485     -0.052407
Mn	      2.09872      3.99897      2.05714         0.067058     -0.050872      0.082232
Mn	      4.30411      4.05567      4.10111        -0.014484      0.120513     -0.053900
V	      8.52729      6.32633     10.31357         0.006404     -0.094646      0.006582
Fe	      6.35723      4.06554      6.24260        -0.010955      0.022119      0.036269
Fe	      6.39995      8.15572      6.45302         0.072767      0.043159     -0.189981
Ni	      0.06693      4.06526      4.12153         0.033931      0.035290     -0.039084
Ni	      4.27392      6.18787      6.37083        -0.070120      0.102605     -0.075134
Ni	      4.23818      2.04585      6.21900        -0.032118     -0.082689      0.181751
O	      4.26438      6.17899      8.33424        -0.018067     -0.003003      0.190061
O	      2.11429      2.17243      2.08140        -0.021076      0.142944     -0.024554
O	      4.05732      4.12912      1.95070        -0.108798     -0.069845     -0.001086
O	      4.27150      2.17729      4.20078        -0.034547     -0.127618     -0.144617
O	      6.26134      4.12452      4.25977        -0.010173     -0.021229     -0.069660
O	      6.31272      2.02540      6.27233         0.114904     -0.077513      0.006831
O	      8.40044      4.11865      6.36990         0.071332     -0.154364      0.058460
O	      2.21651      4.14283      4.04069         0.084903     -0.043758     -0.118847
O	      4.07527      6.08713      4.19609         0.073625     -0.100783     -0.114282
O	      4.29851      4.09187      6.30466        -0.107047     -0.055834      0.016480
O	      6.40067      6.16213      6.22704         0.009811     -0.019575      0.013878
O	      6.57035      4.08628      8.33506         0.108693     -0.046533     -0.105690
O	      8.50598      6.05794      8.52239        -0.010489     -0.120042     -0.146578
O	      2.20232      6.05525      6.02830        -0.035637      0.087515      0.019337
O	      4.37780      8.28504      6.12499        -0.020875      0.109848      0.091010
O	      6.40528      8.25231      8.26875         0.000130      0.063319      0.272046
O	      6.65019      6.13395     10.52904        -0.041864      0.085783     -0.029781
O	      8.62883      8.06238     10.38368        -0.007670      0.234549      0.024012
