# total energy = -89.85229195 eV
 
CRYSTAL
PRIMVEC
1.952517 3.944589 1.952192 
3.989223 -3.999381 0.025681 
3.963384 -0.000132 -3.962445 
PRIMCOORD
16 1
Li	      3.76947      1.80436      1.84324        -0.519962      1.185031      0.230266
Li	      3.78213      0.02533      0.02998        -0.793822     -0.104827     -0.377280
Li	      3.82907     -1.85746     -1.88151        -0.569933     -0.375256     -0.548083
Li	      5.64294     -0.07943     -1.89397        -0.008332      0.751744     -0.728825
Mn	      9.44916     -0.05262     -1.88609         6.502487     -0.634374      0.011211
Mn	      5.69729     -1.93623      0.00069         1.819576     -4.677091      3.100148
Ni	      7.57809     -0.05268     -0.01574         1.804706      0.329263      2.572127
Ni	      7.56833     -1.93640     -1.86995         2.050279     -2.367231     -1.859849
O	      5.67340     -0.15914      0.09032        -1.246728      2.389898      0.776151
O	      5.69759     -1.93297     -1.73976        -1.174382     -0.421228     -3.018326
O	      3.62799      1.88005     -0.02434        -0.093385      1.121403      1.489965
O	      3.77421     -0.00371     -2.03440        -1.345950      0.321240     -0.579658
O	      7.70887     -0.04975     -1.88598        -1.692792      1.628099     -1.618121
O	      3.88928     -2.04261      0.00964        -2.814010     -0.589544      0.379707
O	      5.66384      1.98950     -2.00020        -0.009198      1.490890     -0.129063
O	      1.79781      0.10624      0.00032        -1.908553     -0.048017      0.299630
