# total energy = -220.66409546 eV
 
CRYSTAL
PRIMVEC
0.008466 6.094477 6.388750 
6.214946 -0.011989 6.409574 
4.137870 4.071416 -0.002534 
PRIMCOORD
36 1
Li	      0.12775      6.06555      6.34078         0.031661      0.013362     -0.018447
Li	      2.14403      6.12921      8.38724         0.004432     -0.005598     -0.014424
Li	      8.27751     10.13673     10.62701        -0.030967      0.009686     -0.005736
Li	      2.07730      4.05204      2.13489        -0.002227     -0.007893     -0.023619
Li	      4.08745      4.12330      4.27814         0.011770     -0.017604     -0.003329
Li	      4.16274      8.12880      4.30160         0.018356     -0.008131      0.012263
Li	      2.10049      6.09736      4.27593         0.025910      0.010496      0.012703
Li	      4.14014      6.07524      6.51922         0.026110      0.022044      0.045905
Li	      4.16312      4.09589      8.54056        -0.037266     -0.019488      0.040939
Mn	      8.36930      8.10614     12.70152         0.174806      0.063460      0.056082
Mn	      4.12888      6.04815      2.13909         0.023064     -0.015778      0.040474
Mn	      2.09930      4.15584      6.35815         0.034333      0.064330      0.001534
V	      6.23031      2.07070      4.25089         0.428309      0.292064      0.028942
Fe	      4.12177      2.10200      2.15877        -0.288909     -0.010592     -0.164657
Fe	      8.23988      6.02927      6.39678        -0.124809     -0.034631      0.065937
Fe	      6.17193      6.01891      8.66164         0.033578     -0.229972     -0.328374
Co	      6.15831      4.03862      6.43255        -0.024131      0.059804     -0.044305
Cu	      6.15847      6.07399      4.27472        -0.040479     -0.041191     -0.062748
O	      2.03185      2.02969      1.91982         0.008754      0.039105     -0.026613
O	      4.14297      4.10326      2.10030        -0.008834      0.118953      0.035863
O	      4.14249      2.03828      4.25212         0.138477     -0.001273      0.030743
O	      6.15802      4.06127      4.50072        -0.001989     -0.043180      0.083970
O	      6.11067      2.07478      6.43251         0.026814      0.000585     -0.016898
O	      8.10832      4.02874      6.37805        -0.024430      0.001430     -0.016191
O	      2.05091      3.94924      4.47040        -0.024483      0.037060     -0.095207
O	      4.20694      6.11137      3.97507        -0.053827      0.015278     -0.012607
O	      4.12420      3.97271      6.43047         0.067850      0.046055     -0.000378
O	      6.26129      5.95610      6.59582        -0.080803     -0.009281      0.061458
O	      6.19753      3.98860      8.39417        -0.016383     -0.106473      0.089527
O	      8.36986      6.04445      8.46188        -0.044413     -0.019519      0.058881
O	      2.16180      6.20261      6.32203        -0.004450     -0.094667      0.000881
O	      4.27354      8.16813      6.49086         0.019389      0.035289     -0.063092
O	      4.21750      6.20390      8.56382        -0.072182     -0.098682      0.013280
O	      6.19135      8.12728      8.50103        -0.026516     -0.083505      0.093199
O	      6.23596      6.16798     10.57053         0.039361      0.035910      0.061825
O	      8.20671      8.14833     10.75346        -0.205876     -0.017451      0.062217
