# total energy = -220.66252585 eV
 
CRYSTAL
PRIMVEC
-0.023758 6.213970 6.289665 
6.269812 -0.000359 6.265487 
4.186484 4.133652 -0.006798 
PRIMCOORD
36 1
Li	      0.21786      6.24846      6.19745         0.039263      0.040574     -0.052113
Li	      2.04145      8.11155      6.25297         0.057390     -0.003208     -0.048119
Li	      2.12762      6.18021      8.17228        -0.012732      0.031258      0.008269
Li	      6.28680      2.04474      4.23091         0.001532      0.026378      0.027670
Li	      6.25752      6.20097      4.22325        -0.042733     -0.013221     -0.027654
Li	      4.17224      2.08955      6.27473         0.014495     -0.026434      0.029426
Li	      2.06416      6.25061      4.32574         0.014074      0.018921     -0.040284
Li	      4.04014      6.21542      6.30235         0.000123      0.015626      0.010230
Li	      8.26094      8.31549      8.37761         0.001838     -0.014401      0.105460
Mn	      8.31823      4.16676      4.23215         0.017493     -0.003914      0.076196
Mn	      4.19522      8.28342      4.30157        -0.017155      0.005483      0.021188
Mn	      6.29873      6.23493      8.35011         0.009798     -0.023705      0.076444
V	      4.19191      4.16250      4.28147        -0.009191     -0.036478     -0.167867
Fe	      4.15433      8.25041      8.29311        -0.138045      0.130321      0.071616
Fe	      6.26457      2.04449      8.22442         0.086695     -0.085282      0.136101
Fe	      8.37968      4.12458      8.23539        -0.012653      0.006098      0.105660
Co	      6.21543      4.14272      6.27747         0.106715     -0.000943      0.082850
Ni	      2.07740      4.22483      6.31866         0.066693     -0.165170     -0.089481
O	      2.08001      2.15831      2.06705        -0.006671     -0.106957     -0.026832
O	      4.13223      4.12504      2.16505         0.012982     -0.063708     -0.047539
O	      4.13969      2.16935      4.10292        -0.037832      0.070828      0.032533
O	      6.12782      4.13527      4.37325         0.079325      0.054938     -0.006812
O	      6.25312      2.18426      6.31351         0.013308      0.008137     -0.216513
O	      8.17831      4.18073      6.20244        -0.058969      0.006967     -0.112795
O	      2.04206      4.07992      4.17564        -0.101589     -0.020100     -0.108909
O	      4.16850      6.04603      4.07211         0.018689     -0.004193     -0.030211
O	      4.23948      4.13537      6.16902         0.090046     -0.041317      0.200279
O	      6.21424      6.12002      6.44345        -0.026154     -0.010814     -0.026676
O	      6.31614      4.10689      8.29408        -0.003560      0.135129     -0.003198
O	      8.44971      6.09677      8.33012        -0.046262      0.124916     -0.016252
O	      2.10413      6.18054      6.27098         0.044776      0.106912     -0.016509
O	      4.20336      8.27941      6.33841        -0.075953     -0.027758     -0.178922
O	      4.11766      6.28684      8.57576        -0.106641     -0.099422      0.082177
O	      6.18558      8.22985      8.36014         0.050139     -0.052554      0.098296
O	      6.31680      6.17602     10.30211        -0.064117      0.084591      0.038772
O	      8.56578      8.41597     10.47026         0.034882     -0.067499      0.013519
