# total energy = -218.89918194 eV
 
CRYSTAL
PRIMVEC
0.001322 6.232639 6.306699 
6.359106 0.021312 6.286114 
4.244717 4.147102 0.009315 
PRIMCOORD
36 1
Li	      8.37245      2.13906      6.30280        -0.034912     -0.002935      0.021719
Li	      6.35432      4.19236      2.17885         0.021738     -0.042181     -0.007237
Li	      8.40248      4.20092      4.23649         0.011230     -0.016422      0.039897
Li	      6.37852      2.13253      4.28992         0.075730     -0.025036     -0.036567
Li	      6.37798      2.12834      8.26443        -0.051955      0.073309     -0.013773
Li	      4.28622      2.07287      6.23358        -0.004244     -0.015263      0.007220
Li	      6.40288      4.07152      6.24684         0.006919     -0.010737      0.019018
Li	      6.40183      8.28729      6.36315         0.030214     -0.004799      0.031416
Li	      6.34424      6.24903      8.39127         0.002286      0.024089      0.025964
Mn	      8.44712      4.14750      8.34511        -0.107154      0.079963      0.016604
Mn	      6.37820      6.17067      4.20045         0.025000      0.107031     -0.027342
Mn	      8.46378      6.26429     10.49570         0.005022     -0.081589      0.006157
V	      4.16970      4.18461      8.33255         0.255679     -0.084665      0.034823
Fe	      6.34827      0.14463      6.34635         0.026318     -0.147320     -0.058675
Fe	     10.51699      8.39289     10.51624         0.112649     -0.109066      0.016368
Fe	      4.29587      6.24561      6.33648        -0.011284      0.053781     -0.119524
Cu	      4.28445      8.26014      8.39841         0.078464     -0.075216     -0.005807
Ni	      4.32189      4.10378      4.20391        -0.095096      0.084022      0.042690
O	      1.99874      2.16591      2.24991        -0.100501     -0.028339      0.050527
O	      4.31347      3.99837      2.07935        -0.026467      0.042121     -0.035749
O	      4.06172      2.09654      4.12522        -0.147770     -0.151614      0.000858
O	      6.33237      4.30127      4.20536         0.145287      0.032645     -0.062272
O	      6.36043      2.00678      6.28219        -0.007244      0.258040     -0.030808
O	      8.55474      4.15294      6.46675        -0.051163      0.005455     -0.053563
O	      2.08679      4.10988      4.06223        -0.036179      0.016411     -0.015862
O	      4.30851      6.23871      4.26422         0.074768      0.056973      0.008858
O	      4.25753      4.22402      6.36765        -0.006463     -0.096637     -0.079972
O	      6.29660      6.27417      6.10386         0.056240     -0.034439      0.017311
O	      6.17282      4.19356      8.50132         0.097640     -0.019301     -0.053237
O	      8.48231      6.22639      8.55091        -0.019677      0.016713      0.020451
O	      2.17246      6.21800      6.10731        -0.024052      0.031544      0.065780
O	      4.27073      8.28926      6.28185         0.014795      0.065034     -0.035981
O	      4.27236      6.22914      8.29288        -0.041014     -0.035602      0.102671
O	      6.64975      8.30338      8.45684        -0.137709     -0.024335      0.005431
O	      6.39267      6.17778     10.60112        -0.013665      0.105395     -0.014502
O	      8.55846      8.29701     10.40645        -0.123431     -0.047030      0.117109
