# total energy = -217.92889950 eV
 
CRYSTAL
PRIMVEC
-0.007987 6.353386 6.132071 
6.259619 -0.000909 6.125124 
4.183968 4.241639 -0.011739 
PRIMCOORD
36 1
Li	      4.29985     10.45147      6.17937        -0.064021      0.048936      0.043755
Li	      2.17675      8.35490      6.19423         0.036827     -0.003178      0.018458
Li	      2.20828      6.31581      8.03411         0.056993     -0.063247     -0.020109
Li	      4.17000      8.41633      8.06053         0.073633     -0.039108     -0.022027
Li	      4.13287      6.39074     10.14178         0.095493     -0.065178     -0.064570
Li	      4.18280      4.28366      4.09614         0.011398     -0.062106     -0.023158
Li	      2.04568      4.45037      6.15469         0.019168     -0.167319      0.094841
Li	      4.06396      6.42759      6.14370         0.015455     -0.004488      0.097376
Li	      4.07799      4.38942      8.08427        -0.171898      0.063036      0.016155
Mn	      2.14269      4.23600      2.07187         0.409511     -0.314717     -0.152137
Mn	      4.12629      8.48328      4.15991         0.061836      0.197652      0.278954
Mn	      6.12299      6.38063      8.09938        -0.430146      0.463493      0.267126
V	      6.28351      8.51194     10.15838        -0.250013     -0.058819     -0.280570
Fe	      4.17805      2.16722      6.12428        -0.041616     -0.196970      0.005233
Fe	      6.24923      4.19499      6.12609        -0.345200      0.064228     -0.371624
Fe	      2.05606      6.36300      4.14417         0.476081     -0.059624      1.114526
Cu	      0.07323      2.05732      2.04527         0.185427     -0.208184     -0.038871
Cu	      6.29105      6.30383      4.06539        -0.037340      0.144983     -0.174115
O	      2.09204      6.36445      6.02180         0.008356     -0.047299      0.661140
O	      2.20259      2.33559      2.16812         0.005148      0.151470     -0.062508
O	      3.99975      4.36365      2.01603        -0.156170     -0.081153      0.125761
O	      4.39235      2.03056      4.17525         0.206654      0.048543     -0.089262
O	      6.31358      4.07349      4.15212         0.032912     -0.056804     -0.761397
O	      6.22714      2.24343      6.17720         0.055181     -1.114588     -0.041890
O	      8.21220      4.29543      6.27337         0.975048      0.009572      0.336081
O	      2.10341      4.38043      4.00822         0.017395     -0.621292     -0.277663
O	      4.05436      6.46451      3.98958         0.471356     -0.000352     -0.125305
O	      4.30658      4.09257      6.14221        -0.868401      0.163352      0.153677
O	      6.30983      6.15257      6.00903         0.014100      1.185128      0.181655
O	      6.34265      4.24053      8.22734        -0.018565      0.074639      0.493733
O	      8.12840      6.22902      8.19121        -0.131578     -0.028181     -0.625650
O	      4.18863      8.47306      5.98759        -0.054935     -0.023731     -0.175449
O	      4.27274      6.34739      8.14766         0.259559     -0.013004     -0.049012
O	      6.23358      8.42677      8.24840         0.057501      0.027293     -0.066108
O	      6.32122      6.36255     10.21234        -0.861114     -0.217883     -0.221608
O	      8.17972      8.33998     10.22563        -0.114036      0.804899     -0.245441
