# total energy = -219.40493973 eV
 
CRYSTAL
PRIMVEC
0.020007 6.249150 6.354781 
6.208755 0.019736 6.354662 
4.134447 4.161455 0.017796 
PRIMCOORD
36 1
Li	      8.31539      2.17165      6.33416         0.006410      0.021377     -0.008711
Li	      8.33408     10.39041     10.65459         0.013654      0.006626      0.003527
Li	      4.10640      6.23343      2.17057         0.003315     -0.007610      0.074626
Li	      8.25488      4.25962      8.43834        -0.015956      0.013482      0.019501
Li	      4.11111      4.23443      4.24829        -0.020941     -0.000190     -0.029237
Li	      8.25877      6.20608      6.44423         0.003126      0.009402      0.018454
Li	      4.14584      8.33377      4.33983        -0.030646      0.010896      0.115716
Li	      4.14882      6.26928      6.31885         0.008824      0.000417     -0.054632
Li	      6.25936      6.18932      8.48411         0.025886     -0.001237      0.030143
Mn	      6.10550      6.33055      4.26466         0.070553     -0.047925     -0.025240
Mn	      6.27236      4.19820      6.37516        -0.059025      0.092436      0.071302
Mn	      2.12584      6.20774      4.25644        -0.008728     -0.024202     -0.041788
V	      6.15261      2.09468      4.32116         0.026540     -0.020816      0.033892
Fe	      2.08029      6.28882      8.34714        -0.099789      0.078397      0.054983
Fe	      4.14007      8.30624      8.38140        -0.025664      0.023858      0.175962
Fe	      4.23394      4.15340      8.43110        -0.037308      0.026049      0.073334
Ni	     10.26433      4.16037      6.39327        -0.095057      0.118164     -0.016697
Ni	      6.24982      8.28350      6.35486         0.039892     -0.078395     -0.011967
O	      2.12652      2.00004      2.20422        -0.074396      0.079096     -0.042069
O	      4.21587      4.09201      2.07097         0.003512      0.011705      0.122191
O	      4.33476      2.08609      4.11447        -0.100370     -0.016421     -0.074604
O	      6.21651      4.11785      4.34950         0.003412      0.012629      0.048443
O	      6.21329      2.18880      6.23324         0.014728      0.131504     -0.006235
O	      8.17251      4.18619      6.37682        -0.086808      0.012583     -0.012903
O	      2.08506      4.21201      4.28960        -0.043699      0.014067     -0.119337
O	      4.03297      6.27882      4.25166         0.040776     -0.012472      0.013633
O	      4.22977      4.12297      6.44946         0.107988      0.013275     -0.020143
O	      6.23822      6.16483      6.28111        -0.023008     -0.122433      0.014803
O	      6.18330      4.21056      8.28534         0.125856     -0.097222     -0.058163
O	      8.28499      6.32827      8.67698        -0.024120     -0.059618     -0.022538
O	      2.05096      6.20771      6.33028         0.103825      0.087100     -0.123194
O	      4.18756      8.34243      6.44329        -0.055341     -0.104960     -0.067557
O	      4.06353      6.24617      8.49292         0.110013     -0.031044     -0.028172
O	      6.23987      8.38703      8.50714         0.028170     -0.066998      0.093827
O	      6.29027      6.36325     10.70037         0.082870     -0.089719     -0.200374
O	      8.14851      8.30324     10.51926        -0.018494      0.018199     -0.000775
