# total energy = -225.53925655 eV
 
CRYSTAL
PRIMVEC
0.013229 6.244793 6.368888 
6.332968 0.018992 6.363710 
4.228195 4.166233 0.006295 
PRIMCOORD
36 1
Li	      2.22284      8.28118      6.35343         0.017569      0.001105      0.040637
Li	      2.24339      6.16786      8.43029         0.029059      0.042792     -0.040405
Li	      4.30252      8.25761      8.49195        -0.002508     -0.005340     -0.008303
Li	      6.36004      8.34468     10.44631         0.013101     -0.035180     -0.063426
Li	      6.37843      6.25483      4.30016        -0.018590      0.002187      0.009227
Li	      8.38585      6.26075      6.31758        -0.037747     -0.016870     -0.016538
Li	      4.17369      8.34909      4.37937        -0.010976      0.010094      0.036218
Li	      4.22525      6.29927      6.49595         0.064303      0.026290      0.052773
Li	      4.15983      4.27714      8.51499         0.027731      0.006245      0.024657
Mn	      4.24665     10.37834      6.40561        -0.005862      0.018747     -0.031997
Mn	      2.08910      4.14543      2.15666         0.093758     -0.134213     -0.002514
Mn	      6.29587      4.22079      6.34018        -0.032718      0.095245     -0.144835
V	      0.04884      2.09657      2.13679         0.217090     -0.138022     -0.009785
Fe	      4.22394      6.24906     10.52057         0.022100      0.023455      0.166677
Fe	      4.28482      3.98550      4.23896         0.038648      0.124325     -0.058243
Fe	      8.43800      6.41015     10.64072        -0.088359     -0.070834      0.065572
Fe	      6.35238      8.30986      6.45180         0.049168     -0.111504     -0.063260
Co	      6.27685      6.32502      8.47378        -0.178026      0.162011      0.130264
O	      1.97696      2.22554      2.15661        -0.320333      0.137297     -0.026701
O	      4.29833      4.23244      2.13276        -0.079285      0.025032     -0.037359
O	      4.24266      2.06810      4.21871        -0.002981     -0.104488      0.001681
O	      6.34684      4.15941      4.38288        -0.026597      0.011800      0.027242
O	      6.26452      1.94161      6.60459         0.004371      0.018660      0.095436
O	      8.31521      4.16537      6.41257        -0.013488     -0.009045      0.007841
O	      2.23421      4.22367      4.19610        -0.020703      0.040249     -0.018273
O	      4.15351      6.23027      4.01928         0.018288     -0.035198     -0.125901
O	      4.29702      4.18167      6.21854         0.004589     -0.000821      0.029577
O	      6.31258      6.36999      6.36896         0.005136     -0.134707     -0.207109
O	      6.27107      4.11256      8.32212        -0.015498      0.056630      0.066543
O	      8.46165      6.12106      8.58279         0.040252     -0.006708     -0.039160
O	      2.17707      6.18828      6.25761        -0.030448      0.054468      0.009870
O	      4.32581      8.46968      6.38164        -0.029985      0.050071      0.033042
O	      4.23662      6.26278      8.60979         0.222573      0.033834     -0.207261
O	      6.41350      8.32596      8.38841         0.016456     -0.156185      0.119407
O	      6.32866      6.27252     10.70123         0.030395     -0.021886      0.171225
O	      8.46239      8.35577     10.63279        -0.000483      0.040465      0.013182
